data_structure

_audit_creation_method RASPA-1.0
_audit_creation_date 2023-5-9
_audit_author_name 'Poobodin Mano'

_cell_length_a    29.4468
_cell_length_b    29.4448
_cell_length_c    29.4486
_cell_angle_alpha 89.9988
_cell_angle_beta  90.0003
_cell_angle_gamma 89.9991
_cell_volume      25533.6

_symmetry_cell_setting          triclinic
_symmetry_space_group_name_Hall 'P 1'
_symmetry_space_group_name_H-M  'P 1'
_symmetry_Int_Tables_number     1

_symmetry_equiv_pos_as_xyz 'x,y,z'

loop_
_atom_site_label
_atom_site_type_symbol
_atom_site_fract_x
_atom_site_fract_y
_atom_site_fract_z
_atom_site_charge
C1       C      0.005720000000     0.090420000000     0.484260000000     0.356841   
C2       C      0.982610000000     0.874720000000     0.333590000000     0.377724   
C3       C      0.833730000000     0.991830000000     0.374530000000     0.377709   
C4       C      0.990110000000     0.005750000000     0.383860000000     0.356727   
C5       C      0.874710000000     0.140680000000     0.491670000000     0.377877   
C6       C      0.991670000000     0.099580000000     0.640610000000     0.377705   
C7       C      0.883870000000     0.984300000000     0.505570000000     0.35705    
C8       C      0.090420000000     0.990010000000     0.468620000000     0.356796   
C9       C      0.984190000000     0.968570000000     0.590350000000     0.356841   
C10      C      0.968580000000     0.883880000000     0.489920000000     0.356864   
C11      C      0.140540000000     0.982470000000     0.599670000000     0.377881   
C12      C      0.099570000000     0.833620000000     0.482530000000     0.377753   
C13      C      0.975650000000     0.590760000000     0.974330000000     0.35922    
C14      C      0.848110000000     0.363080000000     0.965350000000     0.384667   
C15      C      0.857230000000     0.470880000000     0.123780000000     0.382448   
C16      C      0.885190000000     0.498000000000     0.971440000000     0.354912   
C17      C      0.962250000000     0.635040000000     0.104070000000     0.377122   
C18      C      0.126170000000     0.611220000000     0.008850000000     0.384537   
C19      C      0.992420000000     0.480010000000     0.092500000000     0.361212   
C20      C      0.981850000000     0.494310000000     0.881690000000     0.361314   
C21      C      0.089090000000     0.476310000000     0.002740000000     0.354843   
C22      C      0.998620000000     0.383540000000     0.999840000000     0.359068   
C23      C      0.117050000000     0.503410000000     0.850420000000     0.382561   
C24      C      0.012030000000     0.339260000000     0.870130000000     0.377093   
C25      C      0.494260000000     0.592580000000     0.492500000000     0.36114    
C26      C      0.635020000000     0.370190000000     0.512040000000     0.377071   
C27      C      0.611360000000     0.465580000000     0.348200000000     0.384637   
C28      C      0.590710000000     0.499960000000     0.498750000000     0.359231   
C29      C      0.503530000000     0.624000000000     0.357350000000     0.382402   
C30      C      0.339270000000     0.604120000000     0.462150000000     0.377154   
C31      C      0.476440000000     0.471630000000     0.385130000000     0.354763   
C32      C      0.497860000000     0.502700000000     0.589090000000     0.355018   
C33      C      0.383570000000     0.474380000000     0.475470000000     0.359202   
C34      C      0.480060000000     0.381730000000     0.481720000000     0.361172   
C35      C      0.362920000000     0.508720000000     0.625990000000     0.384576   
C36      C      0.470750000000     0.350310000000     0.616850000000     0.382555   
C37      C      0.502780000000     0.885160000000     0.976380000000     0.354808   
C38      C      0.623860000000     0.117040000000     0.970690000000     0.382607   
C39      C      0.604130000000     0.012190000000     0.134930000000     0.377141   
C40      C      0.592560000000     0.981830000000     0.979950000000     0.361487   
C41      C      0.508860000000     0.848250000000     0.111320000000     0.38463    
C42      C      0.350440000000     0.857250000000     0.003510000000     0.382413   
C43      C      0.474380000000     0.998760000000     0.090660000000     0.359273   
C44      C      0.499930000000     0.975510000000     0.883520000000     0.35928    
C45      C      0.381740000000     0.992440000000     0.994220000000     0.361207   
C46      C      0.471540000000     0.089130000000     0.997790000000     0.354807   
C47      C      0.370160000000     0.962110000000     0.839270000000     0.377163   
C48      C      0.465430000000     0.126040000000     0.862870000000     0.384635   
C49      C      0.549760000000     0.778320000000     0.205490000000    -0.0853365  
C50      C      0.511830000000     0.750930000000     0.213870000000     0.0334747  
C51      C      0.474770000000     0.753660000000     0.184220000000    -0.085031   
C52      C      0.475260000000     0.784840000000     0.148580000000     0.0661515  
C53      C      0.549140000000     0.809110000000     0.169500000000     0.0671498  
C54      C      0.510610000000     0.719990000000     0.253580000000     0.0335185  
C55      C      0.548970000000     0.694840000000     0.265930000000    -0.0853663  
C56      C      0.546530000000     0.664310000000     0.302040000000     0.06739    
C57      C      0.469620000000     0.684230000000     0.315240000000     0.0661892  
C58      C      0.470900000000     0.715100000000     0.279310000000    -0.0848974  
C59      C      0.499510000000     0.220640000000     0.789980000000    -0.0850319  
C60      C      0.462450000000     0.223380000000     0.760320000000     0.0334378  
C61      C      0.424530000000     0.195980000000     0.768710000000    -0.0852949  
C62      C      0.425140000000     0.165190000000     0.804700000000     0.0671086  
C63      C      0.499020000000     0.189460000000     0.825610000000     0.0661844  
C64      C      0.463670000000     0.254320000000     0.720620000000     0.03354    
C65      C      0.425320000000     0.279460000000     0.708260000000    -0.0853908  
C66      C      0.427760000000     0.309990000000     0.672160000000     0.0674131  
C67      C      0.504660000000     0.290080000000     0.658960000000     0.0662686  
C68      C      0.503380000000     0.259210000000     0.694890000000    -0.0848889  
C69      C      0.714900000000     0.195150000000     0.003310000000    -0.0848839  
C70      C      0.719760000000     0.220900000000     0.963600000000     0.0335292  
C71      C      0.694610000000     0.208540000000     0.925260000000    -0.0853882  
C72      C      0.664110000000     0.172410000000     0.927700000000     0.0674255  
C73      C      0.684050000000     0.159200000000     0.004590000000     0.0662169  
C74      C      0.750710000000     0.260610000000     0.962380000000     0.0334806  
C75      C      0.753460000000     0.290260000000     0.999430000000    -0.0850533  
C76      C      0.784670000000     0.325880000000     0.998940000000     0.0662036  
C77      C      0.808920000000     0.304950000000     0.925060000000     0.0671001  
C78      C      0.778090000000     0.268980000000     0.924440000000    -0.0853154  
C79      C      0.259390000000     0.779150000000     0.970900000000    -0.0848008  
C80      C      0.254530000000     0.753400000000     0.010600000000     0.0334789  
C81      C      0.279680000000     0.765760000000     0.048940000000    -0.0853553  
C82      C      0.310180000000     0.801880000000     0.046500000000     0.0673927  
C83      C      0.290240000000     0.815100000000     0.969610000000     0.0662013  
C84      C      0.223580000000     0.713690000000     0.011830000000     0.0334938  
C85      C      0.220830000000     0.684040000000     0.974770000000    -0.0850712  
C86      C      0.189620000000     0.648420000000     0.975260000000     0.0662198  
C87      C      0.165380000000     0.669350000000     0.049140000000     0.0670969  
C88      C      0.196200000000     0.705320000000     0.049760000000    -0.0853453  
C89      C      0.195040000000     0.470760000000     0.759300000000    -0.0848384  
C90      C      0.220810000000     0.510450000000     0.754410000000     0.0334903  
C91      C      0.208510000000     0.548800000000     0.779590000000    -0.0853532  
C92      C      0.172420000000     0.546370000000     0.810140000000     0.0673972  
C93      C      0.159130000000     0.469490000000     0.790190000000     0.0662369  
C94      C      0.260470000000     0.511660000000     0.723420000000     0.0334829  
C95      C      0.290100000000     0.474580000000     0.720620000000    -0.0850812  
C96      C      0.325700000000     0.475080000000     0.689390000000     0.066199   
C97      C      0.304790000000     0.549000000000     0.665210000000     0.0671039  
C98      C      0.268840000000     0.549610000000     0.696050000000    -0.0853257  
C99      C      0.779240000000     0.503530000000     0.214900000000    -0.0847917  
C100     C      0.753470000000     0.463840000000     0.219780000000     0.0334662  
C101     C      0.765780000000     0.425490000000     0.194600000000    -0.0853317  
C102     C      0.801870000000     0.427920000000     0.164060000000     0.0674047  
C103     C      0.815150000000     0.504810000000     0.184010000000     0.0661733  
C104     C      0.713800000000     0.462630000000     0.250770000000     0.033495   
C105     C      0.684180000000     0.499710000000     0.253570000000    -0.0850059  
C106     C      0.648580000000     0.499220000000     0.284790000000     0.0661044  
C107     C      0.669480000000     0.425290000000     0.308970000000     0.0671346  
C108     C      0.705430000000     0.424680000000     0.278130000000    -0.085346   
C109     C      0.721890000000     0.288060000000     0.548220000000    -0.083459   
C110     C      0.749330000000     0.285880000000     0.509280000000     0.0326607  
C111     C      0.740260000000     0.316110000000     0.473770000000    -0.0842584  
C112     C      0.703080000000     0.345320000000     0.476270000000     0.06529    
C113     C      0.684870000000     0.318040000000     0.549710000000     0.0653662  
C114     C      0.785140000000     0.250410000000     0.504110000000     0.032962   
C115     C      0.812880000000     0.237510000000     0.540540000000    -0.0839238  
C116     C      0.844160000000     0.202030000000     0.535280000000     0.0649309  
C117     C      0.822090000000     0.192520000000     0.458520000000     0.0665376  
C118     C      0.790730000000     0.227860000000     0.462540000000    -0.0843431  
C119     C      0.183540000000     0.746430000000     0.511660000000    -0.0843029  
C120     C      0.189130000000     0.723880000000     0.470100000000     0.03294    
C121     C      0.161400000000     0.736790000000     0.433660000000    -0.0838943  
C122     C      0.130120000000     0.772260000000     0.438920000000     0.0648541  
C123     C      0.152180000000     0.781770000000     0.515690000000     0.0665316  
C124     C      0.224950000000     0.688410000000     0.464920000000     0.0326935  
C125     C      0.252390000000     0.686240000000     0.425990000000    -0.0834372  
C126     C      0.289420000000     0.656270000000     0.424490000000     0.0653473  
C127     C      0.271200000000     0.628980000000     0.497930000000     0.0653011  
C128     C      0.234010000000     0.658180000000     0.500430000000    -0.0842987  
C129     C      0.227690000000     0.011580000000     0.683680000000    -0.084299   
C130     C      0.250270000000     0.970010000000     0.689250000000     0.0329166  
C131     C      0.237370000000     0.933580000000     0.661500000000    -0.0839043  
C132     C      0.201890000000     0.938850000000     0.630230000000     0.0649287  
C133     C      0.192350000000     0.015610000000     0.652330000000     0.0664786  
C134     C      0.285760000000     0.964850000000     0.725030000000     0.0327266  
C135     C      0.315980000000     0.000380000000     0.734070000000    -0.0843703  
C136     C      0.345220000000     0.997880000000     0.771230000000     0.0653617  
C137     C      0.317990000000     0.924420000000     0.789460000000     0.0654061  
C138     C      0.287990000000     0.925900000000     0.752460000000    -0.0834971  
C139     C      0.736900000000     0.040710000000     0.312710000000    -0.0838766  
C140     C      0.724000000000     0.004280000000     0.284970000000     0.0329222  
C141     C      0.746570000000     0.962720000000     0.290530000000    -0.0842751  
C142     C      0.781920000000     0.958690000000     0.321890000000     0.0664933  
C143     C      0.772380000000     0.035450000000     0.343980000000     0.0648967  
C144     C      0.688510000000     0.009450000000     0.249180000000     0.032662   
C145     C      0.658290000000     0.973920000000     0.240140000000    -0.0842686  
C146     C      0.629050000000     0.976420000000     0.202980000000     0.0652777  
C147     C      0.656290000000     0.049880000000     0.184750000000     0.0653814  
C148     C      0.686290000000     0.048400000000     0.221750000000    -0.0834754  
C149     C      0.011760000000     0.790700000000     0.246470000000    -0.0843154  
C150     C      0.970220000000     0.785150000000     0.223860000000     0.0329131  
C151     C      0.933790000000     0.812930000000     0.236720000000    -0.0838412  
C152     C      0.939040000000     0.844200000000     0.272200000000     0.0648571  
C153     C      0.015780000000     0.822060000000     0.281800000000     0.0665111  
C154     C      0.965050000000     0.749340000000     0.188390000000     0.0327552  
C155     C      0.000600000000     0.740230000000     0.158220000000    -0.0844227  
C156     C      0.998080000000     0.703060000000     0.129000000000     0.065422   
C157     C      0.924580000000     0.684930000000     0.156180000000     0.0653394  
C158     C      0.926080000000     0.721950000000     0.186160000000    -0.0834648  
C159     C      0.962520000000     0.183590000000     0.727740000000    -0.0842389  
C160     C      0.004070000000     0.189140000000     0.750350000000     0.0328645  
C161     C      0.040490000000     0.161360000000     0.737490000000    -0.0838559  
C162     C      0.035240000000     0.130090000000     0.702010000000     0.0648704  
C163     C      0.958500000000     0.152230000000     0.692410000000     0.0664915  
C164     C      0.009240000000     0.224950000000     0.785820000000     0.0326885  
C165     C      0.973690000000     0.234060000000     0.815990000000    -0.0842891  
C166     C      0.976200000000     0.271240000000     0.845200000000     0.0653022  
C167     C      0.049700000000     0.289370000000     0.818020000000     0.0653869  
C168     C      0.048200000000     0.252350000000     0.788050000000    -0.0834699  
H1       H      0.870660000000     0.979600000000     0.539500000000    -0.0608398  
H2       H      0.979480000000     0.934630000000     0.603530000000    -0.0608113  
H3       H      0.103630000000     0.994730000000     0.434700000000    -0.0607911  
H4       H      0.934640000000     0.870690000000     0.494590000000    -0.0608121  
H5       H      0.994830000000     0.039690000000     0.370690000000    -0.0607817  
H6       H      0.039660000000     0.103610000000     0.479590000000    -0.0608122  
H7       H      0.024790000000     0.478050000000     0.109700000000    -0.0626851  
H8       H      0.104790000000     0.443480000000     0.007570000000    -0.0596327  
H9       H      0.949480000000     0.496290000000     0.864490000000    -0.0626504  
H10      H      0.999900000000     0.367990000000     0.033080000000    -0.0618266  
H11      H      0.869500000000     0.530840000000     0.966600000000    -0.0595696  
H12      H      0.974360000000     0.606300000000     0.941090000000    -0.0618356  
H13      H      0.443620000000     0.466800000000     0.369400000000    -0.0595615  
H14      H      0.368040000000     0.441140000000     0.474130000000    -0.0618957  
H15      H      0.530670000000     0.507530000000     0.604820000000    -0.0596545  
H16      H      0.478140000000     0.364540000000     0.449340000000    -0.0626655  
H17      H      0.606220000000     0.533210000000     0.500110000000    -0.0618401  
H18      H      0.496180000000     0.609760000000     0.524890000000    -0.0626076  
H19      H      0.441140000000     0.000080000000     0.106180000000    -0.0619139  
H20      H      0.364520000000     0.024820000000     0.996140000000    -0.062621   
H21      H      0.533170000000     0.974170000000     0.867990000000    -0.0618367  
H22      H      0.466710000000     0.104870000000     0.030600000000    -0.0596069  
H23      H      0.609760000000     0.949450000000     0.978020000000    -0.0626763  
H24      H      0.507610000000     0.869420000000     0.943570000000    -0.0595698  
H25      H      0.445280000000     0.732130000000     0.188720000000     0.0504177  
H26      H      0.445380000000     0.786560000000     0.127130000000     0.0259835  
H27      H      0.578710000000     0.830630000000     0.165120000000     0.0245414  
H28      H      0.579200000000     0.777220000000     0.227520000000     0.049917   
H29      H      0.580370000000     0.697580000000     0.246980000000     0.0500851  
H30      H      0.576780000000     0.644740000000     0.309630000000     0.0248145  
H31      H      0.437920000000     0.680850000000     0.333660000000     0.0257974  
H32      H      0.440820000000     0.734810000000     0.271620000000     0.0504054  
H33      H      0.395090000000     0.197080000000     0.746680000000     0.0499057  
H34      H      0.395590000000     0.143660000000     0.809070000000     0.0245513  
H35      H      0.528900000000     0.187750000000     0.847070000000     0.0259779  
H36      H      0.529000000000     0.242170000000     0.785480000000     0.0504179  
H37      H      0.393920000000     0.276730000000     0.727220000000     0.0500827  
H38      H      0.397500000000     0.329560000000     0.664570000000     0.0248094  
H39      H      0.536370000000     0.293450000000     0.640540000000     0.0257738  
H40      H      0.533470000000     0.239490000000     0.702580000000     0.0503777  
H41      H      0.697330000000     0.227500000000     0.893860000000     0.0500824  
H42      H      0.644530000000     0.164810000000     0.897450000000     0.0248084  
H43      H      0.680700000000     0.140780000000     0.036290000000     0.0257845  
H44      H      0.734620000000     0.202850000000     0.033390000000     0.0503806  
H45      H      0.731940000000     0.285760000000     0.028920000000     0.0504223  
H46      H      0.786410000000     0.347320000000     0.028830000000     0.0259636  
H47      H      0.830430000000     0.309320000000     0.895500000000     0.0245459  
H48      H      0.776970000000     0.246960000000     0.895000000000     0.0499217  
H49      H      0.276960000000     0.746790000000     0.080340000000     0.0500644  
H50      H      0.329760000000     0.809480000000     0.076750000000     0.0248264  
H51      H      0.293590000000     0.833520000000     0.937910000000     0.0257926  
H52      H      0.239670000000     0.771450000000     0.940810000000     0.0503506  
H53      H      0.242350000000     0.688530000000     0.945280000000     0.0504379  
H54      H      0.187890000000     0.626970000000     0.945370000000     0.0259673  
H55      H      0.143860000000     0.664980000000     0.078700000000     0.0245512  
H56      H      0.197320000000     0.727340000000     0.079200000000     0.0499281  
H57      H      0.227490000000     0.580190000000     0.776860000000     0.0500753  
H58      H      0.164860000000     0.576620000000     0.829730000000     0.0248154  
H59      H      0.140690000000     0.437800000000     0.793550000000     0.0257855  
H60      H      0.202690000000     0.440670000000     0.739560000000     0.0503606  
H61      H      0.285600000000     0.445080000000     0.742120000000     0.0504504  
H62      H      0.347130000000     0.445180000000     0.687630000000     0.0259735  
H63      H      0.309160000000     0.578580000000     0.643720000000     0.0245454  
H64      H      0.246830000000     0.579060000000     0.697200000000     0.0499244  
H65      H      0.746790000000     0.394100000000     0.197330000000     0.0500606  
H66      H      0.809420000000     0.397670000000     0.144470000000     0.0248121  
H67      H      0.833590000000     0.536500000000     0.180650000000     0.025798   
H68      H      0.771580000000     0.533620000000     0.234640000000     0.0503478  
H69      H      0.688680000000     0.529220000000     0.232060000000     0.0504047  
H70      H      0.627140000000     0.529110000000     0.286550000000     0.0259981  
H71      H      0.665110000000     0.395720000000     0.330470000000     0.0245447  
H72      H      0.727440000000     0.395230000000     0.276980000000     0.0499319  
H73      H      0.761270000000     0.316650000000     0.443570000000     0.0502215  
H74      H      0.697020000000     0.367220000000     0.447290000000     0.0271476  
H75      H      0.663520000000     0.317480000000     0.579700000000     0.0251999  
H76      H      0.727610000000     0.265350000000     0.576570000000     0.0498558  
H77      H      0.810270000000     0.254460000000     0.573070000000     0.0500087  
H78      H      0.864300000000     0.192680000000     0.564640000000     0.0259196  
H79      H      0.824270000000     0.175480000000     0.425950000000     0.0249017  
H80      H      0.769840000000     0.236280000000     0.433470000000     0.0500334  
H81      H      0.164010000000     0.719840000000     0.401130000000     0.0499975  
H82      H      0.109980000000     0.781620000000     0.409560000000     0.0259378  
H83      H      0.150010000000     0.798810000000     0.548260000000     0.0249025  
H84      H      0.204430000000     0.738010000000     0.540740000000     0.0500076  
H85      H      0.246670000000     0.708960000000     0.397640000000     0.049841   
H86      H      0.310760000000     0.656830000000     0.394500000000     0.0251987  
H87      H      0.277260000000     0.607070000000     0.526900000000     0.0271427  
H88      H      0.213010000000     0.657640000000     0.530630000000     0.0502385  
H89      H      0.254330000000     0.901050000000     0.664090000000     0.0500054  
H90      H      0.192550000000     0.909490000000     0.610070000000     0.0259249  
H91      H      0.175310000000     0.048180000000     0.650170000000     0.024898   
H92      H      0.236110000000     0.040650000000     0.704580000000     0.050009   
H93      H      0.316490000000     0.030580000000     0.713070000000     0.0502595  
H94      H      0.367120000000     0.026870000000     0.777270000000     0.0271216  
H95      H      0.317470000000     0.894420000000     0.810800000000     0.0251945  
H96      H      0.265290000000     0.897540000000     0.746750000000     0.0498698  
H97      H      0.738160000000     0.933650000000     0.269630000000     0.0500152  
H98      H      0.798960000000     0.926120000000     0.324040000000     0.0249055  
H99      H      0.781720000000     0.064810000000     0.364140000000     0.0259275  
H100     H      0.719940000000     0.073250000000     0.310120000000     0.0499802  
H101     H      0.657780000000     0.943720000000     0.261140000000     0.0502423  
H102     H      0.607160000000     0.947430000000     0.196930000000     0.0271474  
H103     H      0.656810000000     0.079880000000     0.163410000000     0.0251995  
H104     H      0.708990000000     0.076760000000     0.227460000000     0.0498629  
H105     H      0.901270000000     0.810350000000     0.219730000000     0.0499776  
H106     H      0.909690000000     0.864380000000     0.281510000000     0.0259437  
H107     H      0.048330000000     0.824200000000     0.298880000000     0.0248945  
H108     H      0.040830000000     0.769780000000     0.238090000000     0.0500082  
H109     H      0.030820000000     0.761200000000     0.157720000000     0.0502698  
H110     H      0.027090000000     0.696960000000     0.107140000000     0.0270982  
H111     H      0.894560000000     0.663620000000     0.156690000000     0.0252035  
H112     H      0.897700000000     0.727700000000     0.208830000000     0.0498516  
H113     H      0.073010000000     0.163930000000     0.754480000000     0.0499767  
H114     H      0.064590000000     0.109910000000     0.692700000000     0.0259219  
H115     H      0.925950000000     0.150100000000     0.675330000000     0.0249044  
H116     H      0.933460000000     0.204520000000     0.736130000000     0.049999   
H117     H      0.943470000000     0.213090000000     0.816490000000     0.0502447  
H118     H      0.947200000000     0.277330000000     0.867070000000     0.02714    
H119     H      0.079720000000     0.310680000000     0.817510000000     0.0251988  
H120     H      0.076580000000     0.246590000000     0.765380000000     0.0498485  
Mg1      Mg     0.061200000000     0.918500000000     0.545880000000     0.786334   
Mg2      Mg     0.055700000000     0.045870000000     0.561280000000     0.786321   
Mg3      Mg     0.918580000000     0.928440000000     0.412920000000     0.786361   
Mg4      Mg     0.928360000000     0.061270000000     0.555670000000     0.786352   
Mg5      Mg     0.045940000000     0.913040000000     0.418530000000     0.786336   
Mg6      Mg     0.913080000000     0.055800000000     0.428310000000     0.786291   
Mg7      Mg     0.061580000000     0.427790000000     0.916840000000     0.783505   
Mg8      Mg     0.061800000000     0.555370000000     0.932530000000     0.795405   
Mg9      Mg     0.912480000000     0.418940000000     0.041660000000     0.795406   
Mg10     Mg     0.038700000000     0.562380000000     0.057670000000     0.795917   
Mg11     Mg     0.935580000000     0.411930000000     0.916520000000     0.79591    
Mg12     Mg     0.912690000000     0.546510000000     0.057350000000     0.783486   
Mg13     Mg     0.418860000000     0.432470000000     0.561620000000     0.795483   
Mg14     Mg     0.411850000000     0.557660000000     0.538640000000     0.795844   
Mg15     Mg     0.562440000000     0.416660000000     0.435570000000     0.795926   
Mg16     Mg     0.427870000000     0.557490000000     0.412650000000     0.783507   
Mg17     Mg     0.546420000000     0.416830000000     0.561560000000     0.783475   
Mg18     Mg     0.555440000000     0.541840000000     0.412580000000     0.795472   
Mg19     Mg     0.416600000000     0.038630000000     0.911810000000     0.795889   
Mg20     Mg     0.416870000000     0.912630000000     0.927840000000     0.783487   
Mg21     Mg     0.557420000000     0.061650000000     0.046350000000     0.783478   
Mg22     Mg     0.432550000000     0.912560000000     0.055390000000     0.795412   
Mg23     Mg     0.541750000000     0.061730000000     0.918790000000     0.795411   
Mg24     Mg     0.557710000000     0.935650000000     0.062380000000     0.795884   
N1       N      0.511550000000     0.813450000000     0.142190000000    -0.189425   
N2       N      0.506780000000     0.658060000000     0.325720000000    -0.188824   
N3       N      0.462740000000     0.160840000000     0.832000000000    -0.189418   
N4       N      0.467510000000     0.316240000000     0.648480000000    -0.188855   
N5       N      0.657890000000     0.148710000000     0.967440000000    -0.188855   
N6       N      0.813290000000     0.332250000000     0.962660000000    -0.189478   
N7       N      0.316400000000     0.825590000000     0.006760000000    -0.188811   
N8       N      0.161010000000     0.642050000000     0.011540000000    -0.189407   
N9       N      0.148700000000     0.506640000000     0.816370000000    -0.188843   
N10      N      0.332080000000     0.511390000000     0.660810000000    -0.189424   
N11      N      0.825590000000     0.467650000000     0.157830000000    -0.188832   
N12      N      0.642200000000     0.462900000000     0.313380000000    -0.189407   
N13      N      0.674530000000     0.345240000000     0.513240000000    -0.186936   
N14      N      0.847880000000     0.178830000000     0.494900000000    -0.187079   
N15      N      0.126400000000     0.795470000000     0.479310000000    -0.187032   
N16      N      0.299750000000     0.629070000000     0.460960000000    -0.186912   
N17      N      0.178680000000     0.979230000000     0.626520000000    -0.187027   
N18      N      0.345180000000     0.960900000000     0.799770000000    -0.186924   
N19      N      0.795590000000     0.995070000000     0.347690000000    -0.187023   
N20      N      0.629100000000     0.013400000000     0.174430000000    -0.18693    
N21      N      0.979410000000     0.847890000000     0.295440000000    -0.187016   
N22      N      0.961080000000     0.674550000000     0.129030000000    -0.18694    
N23      N      0.994880000000     0.126410000000     0.678770000000    -0.186985   
N24      N      0.013210000000     0.299750000000     0.845170000000    -0.186932   
O1       O      0.021190000000     0.978080000000     0.570510000000    -0.408829   
O2       O      0.903730000000     0.021290000000     0.496080000000    -0.408936   
O3       O      0.950210000000     0.995040000000     0.589950000000    -0.3385     
O4       O      0.090010000000     0.024000000000     0.495090000000    -0.338495   
O5       O      0.019240000000     0.874200000000     0.357000000000    -0.336938   
O6       O      0.026520000000     0.077170000000     0.627270000000    -0.335617   
O7       O      0.995010000000     0.884240000000     0.523930000000    -0.338535   
O8       O      0.996170000000     0.070570000000     0.521240000000    -0.408829   
O9       O      0.847080000000     0.026680000000     0.396940000000    -0.335551   
O10      O      0.947750000000     0.897120000000     0.346930000000    -0.335554   
O11      O      0.884270000000     0.950320000000     0.479110000000    -0.338619   
O12      O      0.897070000000     0.127300000000     0.526530000000    -0.335637   
O13      O      0.117170000000     0.019120000000     0.600170000000    -0.337057   
O14      O      0.077210000000     0.847000000000     0.447670000000    -0.335621   
O15      O      0.978120000000     0.903770000000     0.452960000000    -0.408846   
O16      O      0.953080000000     0.996230000000     0.403640000000    -0.40876    
O17      O      0.024090000000     0.979270000000     0.384270000000    -0.33849    
O18      O      0.874210000000     0.117310000000     0.455020000000    -0.336993   
O19      O      0.070590000000     0.953000000000     0.478110000000    -0.40887    
O20      O      0.979280000000     0.090050000000     0.450260000000    -0.338534   
O21      O      0.100070000000     0.856990000000     0.519190000000    -0.336918   
O22      O      0.955040000000     0.100110000000     0.617200000000    -0.336927   
O23      O      0.127190000000     0.947620000000     0.577270000000    -0.335614   
O24      O      0.857100000000     0.955170000000     0.374030000000    -0.336925   
O25      O      0.073910000000     0.486410000000     0.963700000000    -0.406759   
O26      O      0.981400000000     0.516930000000     0.073360000000    -0.415121   
O27      O      0.081580000000     0.500530000000     0.037630000000    -0.33773    
O28      O      0.003720000000     0.530840000000     0.887750000000    -0.340856   
O29      O      0.876190000000     0.366270000000     0.932530000000    -0.344183   
O30      O      0.120080000000     0.589250000000     0.971880000000    -0.340281   
O31      O      0.035250000000     0.386710000000     0.977400000000    -0.338571   
O32      O      0.012100000000     0.571670000000     0.986890000000    -0.413484   
O33      O      0.876980000000     0.508980000000     0.116400000000    -0.337274   
O34      O      0.854210000000     0.385050000000     0.002320000000    -0.340347   
O35      O      0.970550000000     0.443480000000     0.086450000000    -0.340805   
O36      O      0.999550000000     0.623850000000     0.084810000000    -0.339115   
O37      O      0.110430000000     0.537610000000     0.876230000000    -0.342243   
O38      O      0.974740000000     0.350450000000     0.889390000000    -0.339148   
O39      O      0.962190000000     0.402690000000     0.987290000000    -0.413421   
O40      O      0.900320000000     0.487900000000     0.010500000000    -0.406803   
O41      O      0.892710000000     0.473790000000     0.936550000000    -0.337781   
O42      O      0.927710000000     0.608550000000     0.103040000000    -0.332827   
O43      O      0.992880000000     0.457380000000     0.900790000000    -0.415144   
O44      O      0.939020000000     0.587580000000     0.996770000000    -0.338558   
O45      O      0.046580000000     0.365750000000     0.871150000000    -0.332768   
O46      O      0.098090000000     0.608040000000     0.041670000000    -0.344154   
O47      O      0.097310000000     0.465310000000     0.857800000000    -0.337353   
O48      O      0.863850000000     0.436680000000     0.097960000000    -0.342161   
O49      O      0.402660000000     0.486890000000     0.511940000000    -0.413386   
O50      O      0.486510000000     0.510670000000     0.400340000000    -0.406809   
O51      O      0.386780000000     0.496870000000     0.438880000000    -0.338571   
O52      O      0.473650000000     0.537590000000     0.581560000000    -0.337824   
O53      O      0.608490000000     0.371170000000     0.546560000000    -0.332765   
O54      O      0.350410000000     0.584810000000     0.499430000000    -0.339156   
O55      O      0.443490000000     0.387730000000     0.503550000000    -0.340728   
O56      O      0.457370000000     0.573440000000     0.481410000000    -0.415068   
O57      O      0.589400000000     0.502550000000     0.354320000000    -0.340382   
O58      O      0.623870000000     0.389500000000     0.474760000000    -0.339156   
O59      O      0.500640000000     0.436720000000     0.392650000000    -0.337724   
O60      O      0.465410000000     0.616590000000     0.377050000000    -0.337284   
O61      O      0.366120000000     0.541580000000     0.597950000000    -0.344145   
O62      O      0.508870000000     0.357720000000     0.597160000000    -0.337326   
O63      O      0.516920000000     0.400920000000     0.492800000000    -0.415198   
O64      O      0.571710000000     0.487430000000     0.462240000000    -0.413424   
O65      O      0.587480000000     0.477470000000     0.535340000000    -0.338597   
O66      O      0.537730000000     0.598180000000     0.363990000000    -0.342175   
O67      O      0.487780000000     0.463650000000     0.573910000000    -0.406796   
O68      O      0.530820000000     0.586570000000     0.470670000000    -0.34076    
O69      O      0.436560000000     0.376130000000     0.610220000000    -0.342253   
O70      O      0.365800000000     0.603150000000     0.427640000000    -0.33283    
O71      O      0.384890000000     0.471750000000     0.619870000000    -0.340354   
O72      O      0.608160000000     0.432720000000     0.376240000000    -0.344116   
O73      O      0.400920000000     0.981380000000     0.957350000000    -0.415173   
O74      O      0.486930000000     0.962280000000     0.071610000000    -0.413443   
O75      O      0.387760000000     0.970610000000     0.030780000000    -0.340784   
O76      O      0.477470000000     0.938900000000     0.886760000000    -0.338615   
O77      O      0.598050000000     0.110380000000     0.936500000000    -0.342258   
O78      O      0.357810000000     0.876970000000     0.965390000000    -0.337267   
O79      O      0.436640000000     0.081590000000     0.973590000000    -0.337727   
O80      O      0.463720000000     0.900330000000     0.986460000000    -0.406709   
O81      O      0.584850000000     0.974890000000     0.123790000000    -0.339162   
O82      O      0.616480000000     0.097330000000     0.008800000000    -0.337365   
O83      O      0.496830000000     0.035380000000     0.087440000000    -0.338617   
O84      O      0.471890000000     0.854330000000     0.089350000000    -0.340368   
O85      O      0.371170000000     0.927590000000     0.865790000000    -0.332838   
O86      O      0.502400000000     0.119970000000     0.884840000000    -0.340359   
O87      O      0.510580000000     0.073920000000     0.987720000000    -0.406805   
O88      O      0.573450000000     0.992900000000     0.016850000000    -0.415198   
O89      O      0.586520000000     0.003660000000     0.943400000000    -0.340905   
O90      O      0.541690000000     0.876320000000     0.108110000000    -0.344177   
O91      O      0.487380000000     0.012010000000     0.902530000000    -0.413438   
O92      O      0.537670000000     0.892710000000     0.000580000000    -0.337771   
O93      O      0.432600000000     0.097970000000     0.866080000000    -0.344148   
O94      O      0.376250000000     0.863900000000     0.037700000000    -0.342205   
O95      O      0.389440000000     0.999410000000     0.850400000000    -0.339205   
O96      O      0.603110000000     0.046710000000     0.108410000000    -0.332804   


