data_structure

_audit_creation_method RASPA-1.0
_audit_creation_date 2023-5-9
_audit_author_name 'Poobodin Mano'

_cell_length_a    25.2698
_cell_length_b    21.9668
_cell_length_c    24.209
_cell_angle_alpha 89.9989
_cell_angle_beta  90.0003
_cell_angle_gamma 89.9992
_cell_volume      13438.3

_symmetry_cell_setting          triclinic
_symmetry_space_group_name_Hall 'P 1'
_symmetry_space_group_name_H-M  'P 1'
_symmetry_Int_Tables_number     1

_symmetry_equiv_pos_as_xyz 'x,y,z'

loop_
_atom_site_label
_atom_site_type_symbol
_atom_site_fract_x
_atom_site_fract_y
_atom_site_fract_z
_atom_site_charge
C1       C      0.085860000000     0.051710000000     0.413790000000     0.353923   
C2       C      0.026130000000     0.307490000000     0.617630000000     0.390671   
C3       C      0.182720000000     0.122010000000     0.662860000000     0.385697   
C4       C      0.094160000000     0.192640000000     0.504550000000     0.358579   
C5       C      0.206330000000     0.957940000000     0.480210000000     0.387659   
C6       C      0.005880000000     0.857580000000     0.412860000000     0.387297   
C7       C      0.070980000000     0.008470000000     0.605480000000     0.356206   
C8       C      0.963890000000     0.153740000000     0.417770000000     0.356908   
C9       C      0.946330000000     0.970510000000     0.524690000000     0.355957   
C10      C      0.950060000000     0.118090000000     0.614140000000     0.359285   
C11      C      0.848690000000     0.033420000000     0.372780000000     0.39069    
C12      C      0.834680000000     0.214720000000     0.539980000000     0.394843   
C13      C      0.891350000000     0.556010000000     0.947920000000     0.359913   
C14      C      0.126250000000     0.782150000000     0.977640000000     0.388161   
C15      C      0.122550000000     0.586180000000     0.823600000000     0.39189    
C16      C      0.996570000000     0.685360000000     0.929580000000     0.354081   
C17      C      0.944790000000     0.434260000000     0.830490000000     0.388682   
C18      C      0.866940000000     0.378320000000     0.047760000000     0.388581   
C19      C      0.071550000000     0.485550000000     0.955270000000     0.354744   
C20      C      0.926820000000     0.673150000000     0.066480000000     0.355876   
C21      C      0.995200000000     0.472990000000     0.096280000000     0.359694   
C22      C      0.102540000000     0.596060000000     0.071260000000     0.355409   
C23      C      0.867680000000     0.578450000000     0.195610000000     0.389658   
C24      C      0.066190000000     0.708210000000     0.193840000000     0.388911   
C25      C      0.628390000000     0.573120000000     0.620090000000     0.360098   
C26      C      0.419380000000     0.826780000000     0.578170000000     0.386452   
C27      C      0.377150000000     0.604330000000     0.689350000000     0.393662   
C28      C      0.527920000000     0.710400000000     0.640200000000     0.355855   
C29      C      0.547720000000     0.439570000000     0.696370000000     0.392008   
C30      C      0.659800000000     0.415730000000     0.498050000000     0.39537    
C31      C      0.450390000000     0.530630000000     0.559210000000     0.361268   
C32      C      0.631010000000     0.715760000000     0.527690000000     0.355896   
C33      C      0.558450000000     0.542480000000     0.438990000000     0.357289   
C34      C      0.459840000000     0.666450000000     0.459760000000     0.35148    
C35      C      0.719130000000     0.647850000000     0.405540000000     0.386789   
C36      C      0.534060000000     0.797170000000     0.377190000000     0.3874     
C37      C      0.448160000000     0.937240000000     0.039630000000     0.354687   
C38      C      0.700770000000     0.126890000000     0.075270000000     0.387678   
C39      C      0.597370000000     0.012740000000     0.256610000000     0.390846   
C40      C      0.591180000000     0.994630000000     0.063660000000     0.355896   
C41      C      0.414690000000     0.877910000000     0.195940000000     0.391916   
C42      C      0.273570000000     0.002080000000     0.052120000000     0.388607   
C43      C      0.464330000000     0.080670000000     0.188320000000     0.354761   
C44      C      0.510210000000     0.056300000000     0.939860000000     0.355998   
C45      C      0.381730000000     0.140180000000     0.063550000000     0.357513   
C46      C      0.525440000000     0.196200000000     0.089950000000     0.357417   
C47      C      0.375950000000     0.125940000000     0.872480000000     0.385478   
C48      C      0.558570000000     0.262520000000     0.940990000000     0.391071   
C49      C      0.467940000000     0.865760000000     0.334390000000     0.0175587  
C50      C      0.421680000000     0.822240000000     0.322000000000    -0.099502   
C51      C      0.423900000000     0.793490000000     0.263850000000     0.0191664  
C52      C      0.538020000000     0.399850000000     0.791290000000     0.0169156  
C53      C      0.565030000000     0.352270000000     0.827910000000    -0.109635   
C54      C      0.548880000000     0.359410000000     0.888460000000     0.0184233  
C55      C      0.787420000000     0.167890000000     0.042950000000     0.0165429  
C56      C      0.793950000000     0.231020000000     0.068900000000    -0.108358   
C57      C      0.833470000000     0.271910000000     0.038010000000     0.0159227  
C58      C      0.189680000000     0.998200000000     0.998030000000     0.0154898  
C59      C      0.188550000000     0.937880000000     0.965800000000    -0.105437   
C60      C      0.156210000000     0.888060000000     0.995190000000     0.0162854  
C61      C      0.193430000000     0.623250000000     0.760490000000     0.0173006  
C62      C      0.243960000000     0.586410000000     0.752250000000    -0.109569   
C63      C      0.288280000000     0.625650000000     0.728040000000     0.0174897  
C64      C      0.841840000000     0.627260000000     0.285040000000     0.0174993  
C65      C      0.826100000000     0.594450000000     0.338730000000    -0.105801   
C66      C      0.815780000000     0.639010000000     0.386270000000     0.01714    
C67      C      0.798460000000     0.312400000000     0.573350000000     0.0150438  
C68      C      0.750050000000     0.350630000000     0.558500000000    -0.105232   
C69      C      0.742490000000     0.358340000000     0.495550000000     0.0157355  
C70      C      0.373040000000     0.922120000000     0.553490000000     0.0129997  
C71      C      0.320210000000     0.903980000000     0.526970000000    -0.103612   
C72      C      0.304160000000     0.945820000000     0.479320000000     0.0153755  
C73      C      0.306660000000     0.115350000000     0.799140000000     0.016098   
C74      C      0.271100000000     0.167520000000     0.778560000000    -0.107539   
C75      C      0.217020000000     0.146130000000     0.756820000000     0.0144538  
C76      C      0.755540000000     0.055180000000     0.346150000000     0.0159462  
C77      C      0.711720000000     0.016070000000     0.320120000000    -0.109606   
C78      C      0.656540000000     0.040230000000     0.334700000000     0.0199605  
C79      C      0.032950000000     0.756800000000     0.376780000000     0.015074   
C80      C      0.046030000000     0.767070000000     0.315740000000    -0.105579   
C81      C      0.086480000000     0.721600000000     0.293600000000     0.0177722  
C82      C      0.054510000000     0.376260000000     0.693610000000     0.0146854  
C83      C      0.015520000000     0.363590000000     0.741040000000    -0.101028   
C84      C      0.962920000000     0.398750000000     0.735420000000     0.0174624  
H1       H      0.055610000000     0.964510000000     0.617510000000    -0.0613596  
H2       H      0.916070000000     0.967270000000     0.556120000000    -0.0605848  
H3       H      0.978470000000     0.197550000000     0.404280000000    -0.0637871  
H4       H      0.959050000000     0.102610000000     0.655470000000    -0.0655281  
H5       H      0.125850000000     0.193050000000     0.474570000000    -0.0635631  
H6       H      0.076600000000     0.069400000000     0.373270000000    -0.059062   
H7       H      0.080280000000     0.441360000000     0.972700000000    -0.0619255  
H8       H      0.025810000000     0.467490000000     0.127070000000    -0.0639088  
H9       H      0.920720000000     0.717430000000     0.048090000000    -0.0609851  
H10      H      0.137220000000     0.570350000000     0.059460000000    -0.0599205  
H11      H      0.964800000000     0.691160000000     0.900140000000    -0.0592503  
H12      H      0.855490000000     0.580270000000     0.958360000000    -0.0639272  
H13      H      0.444330000000     0.491910000000     0.532380000000    -0.0658828  
H14      H      0.536320000000     0.551180000000     0.401610000000    -0.0626298  
H15      H      0.634840000000     0.753480000000     0.556080000000    -0.0592968  
H16      H      0.422050000000     0.643930000000     0.455240000000    -0.059366   
H17      H      0.551010000000     0.707070000000     0.677670000000    -0.0605832  
H18      H      0.667350000000     0.593250000000     0.622660000000    -0.0662202  
H19      H      0.428860000000     0.102790000000     0.203170000000    -0.0614183  
H20      H      0.381310000000     0.189020000000     0.068970000000    -0.0624075  
H21      H      0.545700000000     0.034460000000     0.924740000000    -0.0613822  
H22      H      0.524430000000     0.214070000000     0.131540000000    -0.0613829  
H23      H      0.591380000000     0.945850000000     0.057740000000    -0.0609251  
H24      H      0.449190000000     0.918390000000     0.998390000000    -0.0614415  
H25      H      0.461380000000     0.887780000000     0.375190000000     0.034437   
H26      H      0.469320000000     0.903040000000     0.303550000000     0.0397852  
H27      H      0.353390000000     0.821510000000     0.220650000000     0.0979111  
H28      H      0.421930000000     0.785200000000     0.353300000000     0.0567533  
H29      H      0.383700000000     0.847120000000     0.327440000000     0.0498075  
H30      H      0.405370000000     0.747640000000     0.266010000000     0.0244476  
H31      H      0.465150000000     0.785990000000     0.249490000000     0.0369731  
H32      H      0.539390000000     0.830530000000     0.297220000000     0.101801   
H33      H      0.546590000000     0.446040000000     0.807950000000     0.0336405  
H34      H      0.494480000000     0.392440000000     0.791750000000     0.0315668  
H35      H      0.618340000000     0.325960000000     0.930010000000     0.0982411  
H36      H      0.554160000000     0.305880000000     0.813410000000     0.0583913  
H37      H      0.608690000000     0.357600000000     0.824380000000     0.0555441  
H38      H      0.505440000000     0.353060000000     0.893080000000     0.035043   
H39      H      0.558470000000     0.406240000000     0.902740000000     0.0245816  
H40      H      0.576960000000     0.356060000000     0.721520000000     0.0975356  
H41      H      0.826840000000     0.145880000000     0.038770000000     0.0249037  
H42      H      0.769940000000     0.171720000000     0.000930000000     0.0360945  
H43      H      0.816550000000     0.337200000000     0.103080000000     0.0983349  
H44      H      0.754670000000     0.253870000000     0.069970000000     0.0590319  
H45      H      0.807860000000     0.225430000000     0.112230000000     0.0542627  
H46      H      0.819410000000     0.279270000000     0.994990000000     0.0338512  
H47      H      0.872960000000     0.249640000000     0.036880000000     0.0313088  
H48      H      0.772490000000     0.112290000000     0.114450000000     0.0973627  
H49      H      0.148620000000     0.012320000000     0.008420000000     0.0244263  
H50      H      0.206450000000     0.034600000000     0.971330000000     0.0356577  
H51      H      0.174040000000     0.830780000000     0.924030000000     0.0975153  
H52      H      0.170560000000     0.946700000000     0.924660000000     0.0496867  
H53      H      0.229720000000     0.921660000000     0.959000000000     0.0559674  
H54      H      0.115430000000     0.905100000000     0.002990000000     0.0324168  
H55      H      0.175060000000     0.877050000000     0.035470000000     0.0368291  
H56      H      0.200880000000     0.975700000000     0.083970000000     0.0982763  
H57      H      0.182640000000     0.646650000000     0.721350000000     0.0240754  
H58      H      0.200250000000     0.658920000000     0.792310000000     0.0367157  
H59      H      0.343080000000     0.554660000000     0.752250000000     0.0980848  
H60      H      0.256500000000     0.567560000000     0.792840000000     0.0563422  
H61      H      0.236100000000     0.547800000000     0.723650000000     0.0558921  
H62      H      0.295710000000     0.665570000000     0.755210000000     0.0290967  
H63      H      0.275940000000     0.642160000000     0.686530000000     0.0337295  
H64      H      0.137290000000     0.551510000000     0.745620000000     0.096329   
H65      H      0.883970000000     0.641530000000     0.288080000000     0.0354875  
H66      H      0.817560000000     0.668920000000     0.279160000000     0.029032   
H67      H      0.761060000000     0.705590000000     0.353740000000     0.0982824  
H68      H      0.790040000000     0.566270000000     0.332280000000     0.0611331  
H69      H      0.858680000000     0.563060000000     0.350620000000     0.0512537  
H70      H      0.846990000000     0.674700000000     0.387180000000     0.0238711  
H71      H      0.818440000000     0.614290000000     0.426260000000     0.0338401  
H72      H      0.795220000000     0.567820000000     0.233810000000     0.0986588  
H73      H      0.803310000000     0.311830000000     0.618980000000     0.0291742  
H74      H      0.833990000000     0.334480000000     0.555000000000     0.0343145  
H75      H      0.664760000000     0.323530000000     0.484580000000     0.0976751  
H76      H      0.714680000000     0.328650000000     0.577320000000     0.0568057  
H77      H      0.753990000000     0.396380000000     0.577710000000     0.0489849  
H78      H      0.757690000000     0.318160000000     0.472580000000     0.0318089  
H79      H      0.764680000000     0.398830000000     0.480570000000     0.0336808  
H80      H      0.754510000000     0.230660000000     0.550530000000     0.0980083  
H81      H      0.368130000000     0.965890000000     0.575950000000     0.0274914  
H82      H      0.403910000000     0.928940000000     0.521310000000     0.0368521  
H83      H      0.246380000000     0.891380000000     0.436030000000     0.0960724  
H84      H      0.323050000000     0.856610000000     0.510930000000     0.0530923  
H85      H      0.288940000000     0.904900000000     0.559310000000     0.0571596  
H86      H      0.332090000000     0.939430000000     0.444310000000     0.0241828  
H87      H      0.306540000000     0.994370000000     0.492160000000     0.0355267  
H88      H      0.365690000000     0.870940000000     0.628710000000     0.0980118  
H89      H      0.317040000000     0.084630000000     0.764390000000     0.0273814  
H90      H      0.284710000000     0.088440000000     0.830580000000     0.0366321  
H91      H      0.253890000000     0.090450000000     0.693640000000     0.0976209  
H92      H      0.264070000000     0.199190000000     0.813660000000     0.0520838  
H93      H      0.291850000000     0.193580000000     0.745650000000     0.0548266  
H94      H      0.190670000000     0.186650000000     0.755430000000     0.0355336  
H95      H      0.199050000000     0.112710000000     0.785730000000     0.02717    
H96      H      0.375360000000     0.173840000000     0.798910000000     0.0974244  
H97      H      0.747520000000     0.059660000000     0.391180000000     0.0348069  
H98      H      0.755280000000     0.101360000000     0.327380000000     0.0309386  
H99      H      0.599990000000     0.966400000000     0.331350000000     0.0985455  
H100     H      0.716750000000     0.015830000000     0.274490000000     0.062588   
H101     H      0.715330000000     0.968470000000     0.335350000000     0.0572982  
H102     H      0.652590000000     0.088630000000     0.321750000000     0.0330739  
H103     H      0.651070000000     0.038710000000     0.380250000000     0.023101   
H104     H      0.813460000000     0.001560000000     0.301170000000     0.0981966  
H105     H      0.069250000000     0.760470000000     0.402550000000     0.035628   
H106     H      0.016330000000     0.710350000000     0.382440000000     0.0250647  
H107     H      0.123230000000     0.767080000000     0.224610000000     0.0982818  
H108     H      0.008980000000     0.763140000000     0.291140000000     0.0598143  
H109     H      0.061820000000     0.813970000000     0.310290000000     0.0568215  
H110     H      0.072600000000     0.674100000000     0.300200000000     0.0336483  
H111     H      0.124450000000     0.727120000000     0.316260000000     0.0244401  
H112     H      0.954760000000     0.794600000000     0.378550000000     0.0978831  
H113     H      0.090750000000     0.348200000000     0.699110000000     0.035363   
H114     H      0.066940000000     0.424790000000     0.695130000000     0.0269092  
H115     H      0.909690000000     0.358380000000     0.794900000000     0.0972096  
H116     H      0.007010000000     0.313980000000     0.742990000000     0.0523646  
H117     H      0.035320000000     0.376520000000     0.780340000000     0.0548098  
H118     H      0.938500000000     0.377610000000     0.702380000000     0.0286338  
H119     H      0.970380000000     0.446780000000     0.723060000000     0.036723   
H120     H      0.007300000000     0.398960000000     0.622790000000     0.096532   
Mg1      Mg     0.883170000000     0.083970000000     0.499940000000     0.789676   
Mg2      Mg     0.973450000000     0.004920000000     0.400380000000     0.791193   
Mg3      Mg     0.060320000000     0.158210000000     0.630460000000     0.783739   
Mg4      Mg     0.074030000000     0.941090000000     0.497400000000     0.78323    
Mg5      Mg     0.966990000000     0.223390000000     0.522930000000     0.800041   
Mg6      Mg     0.153550000000     0.081520000000     0.530420000000     0.78839    
Mg7      Mg     0.994890000000     0.593300000000     0.152390000000     0.786535   
Mg8      Mg     0.882000000000     0.530070000000     0.068030000000     0.797834   
Mg9      Mg     0.112080000000     0.631200000000     0.951360000000     0.784373   
Mg10     Mg     0.959940000000     0.434850000000     0.968150000000     0.782907   
Mg11     Mg     0.037090000000     0.720060000000     0.057450000000     0.786072   
Mg12     Mg     0.000730000000     0.561500000000     0.872120000000     0.792156   
Mg13     Mg     0.585580000000     0.668910000000     0.412430000000     0.784308   
Mg14     Mg     0.667200000000     0.570170000000     0.506960000000     0.787108   
Mg15     Mg     0.420980000000     0.675310000000     0.579980000000     0.786131   
Mg16     Mg     0.554880000000     0.471650000000     0.559840000000     0.801402   
Mg17     Mg     0.522840000000     0.774030000000     0.514690000000     0.785817   
Mg18     Mg     0.506760000000     0.578390000000     0.669870000000     0.798511   
Mg19     Mg     0.454550000000     0.181450000000     0.974120000000     0.787703   
Mg20     Mg     0.384320000000     0.029800000000     0.976490000000     0.782874   
Mg21     Mg     0.589820000000     0.104320000000     0.150850000000     0.790061   
Mg22     Mg     0.379590000000     0.008100000000     0.131280000000     0.789052   
Mg23     Mg     0.594690000000     0.128310000000     0.997940000000     0.789739   
Mg24     Mg     0.519380000000     0.954160000000     0.155360000000     0.786694   
N1       N      0.394020000000     0.829910000000     0.223860000000    -0.2167     
N2       N      0.518370000000     0.832780000000     0.334390000000    -0.214833   
N3       N      0.578520000000     0.316060000000     0.922320000000    -0.216617   
N4       N      0.557320000000     0.395560000000     0.734340000000    -0.216542   
N5       N      0.837830000000     0.330670000000     0.066430000000    -0.215272   
N6       N      0.754330000000     0.130360000000     0.079240000000    -0.215309   
N7       N      0.153390000000     0.832540000000     0.961470000000    -0.215078   
N8       N      0.220510000000     0.992330000000     0.049050000000    -0.214498   
N9       N      0.336850000000     0.589830000000     0.723790000000    -0.217267   
N10      N      0.150130000000     0.582390000000     0.775690000000    -0.217259   
N11      N      0.763760000000     0.667920000000     0.379990000000    -0.214673   
N12      N      0.832850000000     0.587280000000     0.237570000000    -0.215715   
N13      N      0.686070000000     0.364380000000     0.483940000000    -0.216061   
N14      N      0.792420000000     0.249540000000     0.553580000000    -0.216898   
N15      N      0.250590000000     0.929920000000     0.461010000000    -0.215776   
N16      N      0.388530000000     0.874690000000     0.592830000000    -0.215304   
N17      N      0.221540000000     0.118760000000     0.701690000000    -0.214265   
N18      N      0.355660000000     0.140720000000     0.822220000000    -0.214814   
N19      N      0.615430000000     0.002850000000     0.308690000000    -0.216822   
N20      N      0.807530000000     0.027140000000     0.337120000000    -0.215614   
N21      N      0.095470000000     0.733620000000     0.234860000000    -0.21618    
N22      N      0.993190000000     0.801560000000     0.393350000000    -0.215543   
N23      N      0.933440000000     0.396540000000     0.787640000000    -0.216175   
N24      N      0.029970000000     0.363940000000     0.640060000000    -0.215244   
O1       O      0.940580000000     0.009160000000     0.486150000000    -0.410762   
O2       O      0.093200000000     0.013660000000     0.558730000000    -0.410694   
O3       O      0.988830000000     0.940400000000     0.531490000000    -0.33557    
O4       O      0.973720000000     0.107760000000     0.387830000000    -0.340223   
O5       O      0.991850000000     0.299500000000     0.579740000000    -0.3484     
O6       O      0.972610000000     0.900500000000     0.405760000000    -0.343443   
O7       O      0.912840000000     0.091940000000     0.588370000000    -0.341618   
O8       O      0.055130000000     0.012380000000     0.435050000000    -0.41095    
O9       O      0.188690000000     0.091620000000     0.618180000000    -0.341538   
O10      O      0.055220000000     0.264040000000     0.635870000000    -0.339739   
O11      O      0.059670000000     0.054030000000     0.635500000000    -0.338569   
O12      O      0.161180000000     0.935510000000     0.467650000000    -0.34136    
O13      O      0.890740000000     0.002940000000     0.363680000000    -0.344881   
O14      O      0.880980000000     0.236370000000     0.547290000000    -0.34969    
O15      O      0.981410000000     0.155210000000     0.591040000000    -0.412253   
O16      O      0.098050000000     0.157480000000     0.545900000000    -0.412739   
O17      O      0.051630000000     0.219840000000     0.492110000000    -0.34278    
O18      O      0.210970000000     0.005340000000     0.510290000000    -0.344887   
O19      O      0.944530000000     0.149140000000     0.465930000000    -0.412257   
O20      O      0.123380000000     0.076610000000     0.440610000000    -0.335443   
O21      O      0.826830000000     0.162430000000     0.518450000000    -0.345214   
O22      O      0.050540000000     0.866320000000     0.436240000000    -0.342397   
O23      O      0.843780000000     0.067960000000     0.415020000000    -0.34211    
O24      O      0.141810000000     0.154980000000     0.671730000000    -0.340358   
O25      O      0.964590000000     0.518550000000     0.099690000000    -0.413719   
O26      O      0.024900000000     0.496350000000     0.938640000000    -0.408726   
O27      O      0.996170000000     0.438270000000     0.054450000000    -0.340207   
O28      O      0.891340000000     0.633040000000     0.059190000000    -0.3393     
O29      O      0.101170000000     0.782640000000     0.023380000000    -0.342199   
O30      O      0.864490000000     0.428030000000     0.075010000000    -0.345027   
O31      O      0.076900000000     0.578650000000     0.113590000000    -0.336327   
O32      O      0.909880000000     0.518090000000     0.982280000000    -0.414433   
O33      O      0.080470000000     0.554630000000     0.827900000000    -0.34773    
O34      O      0.127510000000     0.735070000000     0.946620000000    -0.341309   
O35      O      0.106850000000     0.526660000000     0.958100000000    -0.337336   
O36      O      0.929010000000     0.419590000000     0.878910000000    -0.341473   
O37      O      0.852560000000     0.545880000000     0.154990000000    -0.34679    
O38      O      0.074340000000     0.725910000000     0.144290000000    -0.342428   
O39      O      0.085630000000     0.637050000000     0.038750000000    -0.41019    
O40      O      0.027370000000     0.640090000000     0.924260000000    -0.409112   
O41      O      0.997650000000     0.720130000000     0.971580000000    -0.335927   
O42      O      0.973640000000     0.480860000000     0.821740000000    -0.345096   
O43      O      0.971670000000     0.661200000000     0.087490000000    -0.411428   
O44      O      0.917040000000     0.573300000000     0.905790000000    -0.340963   
O45      O      0.031860000000     0.667530000000     0.205640000000    -0.344057   
O46      O      0.894450000000     0.373160000000     0.003610000000    -0.337422   
O47      O      0.913850000000     0.602530000000     0.197580000000    -0.339281   
O48      O      0.137730000000     0.622360000000     0.861640000000    -0.344758   
O49      O      0.595540000000     0.578760000000     0.451900000000    -0.412208   
O50      O      0.492030000000     0.532720000000     0.588340000000    -0.417663   
O51      O      0.540760000000     0.502370000000     0.471730000000    -0.341041   
O52      O      0.661630000000     0.670400000000     0.534000000000    -0.336664   
O53      O      0.451680000000     0.832190000000     0.538000000000    -0.344457   
O54      O      0.680110000000     0.467800000000     0.487020000000    -0.340811   
O55      O      0.494670000000     0.658120000000     0.422430000000    -0.334633   
O56      O      0.615670000000     0.544970000000     0.576370000000    -0.414574   
O57      O      0.419500000000     0.573100000000     0.692840000000    -0.349212   
O58      O      0.413670000000     0.776720000000     0.604240000000    -0.34207    
O59      O      0.419460000000     0.575680000000     0.554240000000    -0.341758   
O60      O      0.564840000000     0.431780000000     0.647210000000    -0.346138   
O61      O      0.721560000000     0.601520000000     0.437400000000    -0.342171   
O62      O      0.510030000000     0.801150000000     0.423510000000    -0.341845   
O63      O      0.469610000000     0.694640000000     0.504450000000    -0.409973   
O64      O      0.496060000000     0.667670000000     0.628380000000    -0.411287   
O65      O      0.538190000000     0.753540000000     0.606810000000    -0.335203   
O66      O      0.521630000000     0.486850000000     0.710570000000    -0.343755   
O67      O      0.592300000000     0.715270000000     0.494300000000    -0.41063    
O68      O      0.595250000000     0.586390000000     0.657370000000    -0.343684   
O69      O      0.571630000000     0.759480000000     0.369330000000    -0.34616    
O70      O      0.617050000000     0.409770000000     0.525280000000    -0.352181   
O71      O      0.675950000000     0.676980000000     0.397400000000    -0.339632   
O72      O      0.372330000000     0.648870000000     0.655760000000    -0.342703   
O73      O      0.401020000000     0.118460000000     0.019420000000    -0.411335   
O74      O      0.459980000000     0.030020000000     0.163520000000    -0.410029   
O75      O      0.370050000000     0.107230000000     0.104790000000    -0.339727   
O76      O      0.467170000000     0.026550000000     0.937940000000    -0.337987   
O77      O      0.677610000000     0.146350000000     0.031850000000    -0.341562   
O78      O      0.298480000000     0.022030000000     0.009740000000    -0.340321   
O79      O      0.489030000000     0.212370000000     0.056910000000    -0.338206   
O80      O      0.415640000000     0.979760000000     0.049930000000    -0.407681   
O81      O      0.560240000000     0.978870000000     0.238060000000    -0.344462   
O82      O      0.675050000000     0.104780000000     0.116070000000    -0.342692   
O83      O      0.507480000000     0.110210000000     0.190220000000    -0.338055   
O84      O      0.383320000000     0.911150000000     0.167590000000    -0.344129   
O85      O      0.355570000000     0.082320000000     0.900290000000    -0.339824   
O86      O      0.589570000000     0.226900000000     0.967200000000    -0.345349   
O87      O      0.558330000000     0.154310000000     0.078670000000    -0.413726   
O88      O      0.572190000000     0.015910000000     0.108220000000    -0.411504   
O89      O      0.603730000000     0.028130000000     0.022940000000    -0.33766    
O90      O      0.463950000000     0.889730000000     0.200290000000    -0.346697   
O91      O      0.514480000000     0.106710000000     0.965040000000    -0.410306   
O92      O      0.484150000000     0.921300000000     0.073290000000    -0.337503   
O93      O      0.510040000000     0.249330000000     0.932180000000    -0.342593   
O94      O      0.297080000000     0.989800000000     0.097430000000    -0.342818   
O95      O      0.414450000000     0.157880000000     0.890930000000    -0.341398   
O96      O      0.617730000000     0.055380000000     0.227840000000    -0.345808   


