data_structure

_audit_creation_method RASPA-1.0
_audit_creation_date 2023-5-9
_audit_author_name 'Poobodin Mano'

_cell_length_a    27.4969
_cell_length_b    25.2479
_cell_length_c    24.392
_cell_angle_alpha 89.9989
_cell_angle_beta  90.0003
_cell_angle_gamma 89.9992
_cell_volume      16933.9

_symmetry_cell_setting          triclinic
_symmetry_space_group_name_Hall 'P 1'
_symmetry_space_group_name_H-M  'P 1'
_symmetry_Int_Tables_number     1

_symmetry_equiv_pos_as_xyz 'x,y,z'

loop_
_atom_site_label
_atom_site_type_symbol
_atom_site_fract_x
_atom_site_fract_y
_atom_site_fract_z
_atom_site_charge
C1       C      0.033100000000     0.174560000000     0.520510000000     0.353233   
C2       C      0.008230000000     0.924380000000     0.339390000000     0.390007   
C3       C      0.855400000000     0.074130000000     0.366210000000     0.387487   
C4       C      0.022330000000     0.076560000000     0.396070000000     0.358658   
C5       C      0.900310000000     0.245940000000     0.507480000000     0.389517   
C6       C      0.992490000000     0.182120000000     0.707160000000     0.387911   
C7       C      0.891530000000     0.063870000000     0.525880000000     0.359281   
C8       C      0.115360000000     0.052890000000     0.513170000000     0.354011   
C9       C      0.986340000000     0.035770000000     0.642140000000     0.357918   
C10      C      0.975180000000     0.940140000000     0.522480000000     0.355729   
C11      C      0.155750000000     0.042380000000     0.671580000000     0.385927   
C12      C      0.106180000000     0.868370000000     0.533310000000     0.389608   
C13      C      0.911990000000     0.531140000000     0.008820000000     0.356704   
C14      C      0.138150000000     0.709770000000     0.015550000000     0.38783    
C15      C      0.133950000000     0.510560000000     0.905540000000     0.395997   
C16      C      0.018250000000     0.627880000000     0.975350000000     0.357605   
C17      C      0.953610000000     0.407000000000     0.914020000000     0.391815   
C18      C      0.874690000000     0.393670000000     0.127760000000     0.39159    
C19      C      0.070390000000     0.458470000000     0.040980000000     0.358673   
C20      C      0.942610000000     0.646630000000     0.106890000000     0.355042   
C21      C      0.994360000000     0.477240000000     0.172570000000     0.357964   
C22      C      0.100300000000     0.573380000000     0.138470000000     0.357186   
C23      C      0.877250000000     0.591490000000     0.243880000000     0.386513   
C24      C      0.061430000000     0.696500000000     0.233170000000     0.389573   
C25      C      0.568470000000     0.581780000000     0.673900000000     0.35349    
C26      C      0.326300000000     0.660210000000     0.544180000000     0.387549   
C27      C      0.342380000000     0.493470000000     0.700490000000     0.395454   
C28      C      0.439460000000     0.635780000000     0.641580000000     0.361      
C29      C      0.527040000000     0.470950000000     0.788730000000     0.39343    
C30      C      0.672570000000     0.443620000000     0.619980000000     0.384192   
C31      C      0.456400000000     0.449070000000     0.615710000000     0.356264   
C32      C      0.546440000000     0.656640000000     0.539790000000     0.352845   
C33      C      0.560000000000     0.468740000000     0.517180000000     0.35358    
C34      C      0.430130000000     0.526560000000     0.482150000000     0.360217   
C35      C      0.659480000000     0.602390000000     0.450370000000     0.386647   
C36      C      0.465200000000     0.636550000000     0.372080000000     0.388738   
C37      C      0.518400000000     0.931730000000     0.027450000000     0.354522   
C38      C      0.668910000000     0.167510000000     0.129490000000     0.388119   
C39      C      0.624050000000     0.991930000000     0.265270000000     0.388036   
C40      C      0.621960000000     0.024080000000     0.077040000000     0.361768   
C41      C      0.517050000000     0.830460000000     0.155140000000     0.387774   
C42      C      0.348480000000     0.914260000000     0.046430000000     0.3884     
C43      C      0.489480000000     0.008150000000     0.202960000000     0.35996    
C44      C      0.530100000000     0.069230000000     0.962360000000     0.352879   
C45      C      0.400880000000     0.055240000000     0.093590000000     0.352714   
C46      C      0.503120000000     0.150220000000     0.138360000000     0.358583   
C47      C      0.390420000000     0.088260000000     0.905710000000     0.386213   
C48      C      0.510050000000     0.247060000000     0.004750000000     0.389135   
C49      C      0.469300000000     0.695850000000     0.235890000000    -0.0773481  
C50      C      0.485820000000     0.687810000000     0.176350000000    -0.0777518  
C51      C      0.483110000000     0.739730000000     0.143530000000     0.00504922 
C52      C      0.474620000000     0.645210000000     0.270280000000     0.00504559 
C53      C      0.544560000000     0.391230000000     0.913840000000    -0.0777263  
C54      C      0.576340000000     0.348350000000     0.940300000000    -0.0771433  
C55      C      0.556390000000     0.331680000000     0.996790000000     0.00402707 
C56      C      0.566700000000     0.415380000000     0.861460000000     0.00515588 
C57      C      0.757900000000     0.336390000000     0.149970000000    -0.0784508  
C58      C      0.756010000000     0.276450000000     0.160810000000    -0.078396   
C59      C      0.719700000000     0.248160000000     0.122950000000     0.00497057 
C60      C      0.801440000000     0.362670000000     0.178670000000     0.00541114 
C61      C      0.217360000000     0.887330000000     0.010760000000    -0.0801076  
C62      C      0.215960000000     0.828570000000     0.994420000000    -0.0772121  
C63      C      0.167030000000     0.802960000000     0.009050000000     0.00410957 
C64      C      0.267770000000     0.912070000000     0.001300000000     0.00627693 
C65      C      0.296870000000     0.467960000000     0.826910000000    -0.0754576  
C66      C      0.241290000000     0.465080000000     0.824420000000    -0.0787242  
C67      C      0.217270000000     0.496170000000     0.870780000000     0.00731587 
C68      C      0.319560000000     0.436780000000     0.779600000000     0.00625076 
C69      C      0.776930000000     0.582600000000     0.342030000000    -0.0766218  
C70      C      0.779170000000     0.629760000000     0.382130000000    -0.0754416  
C71      C      0.746970000000     0.620900000000     0.432890000000     0.00398151 
C72      C      0.793910000000     0.596890000000     0.283870000000     0.00459722 
C73      C      0.822570000000     0.362170000000     0.540760000000    -0.0806169  
C74      C      0.792460000000     0.376190000000     0.591780000000    -0.0797161  
C75      C      0.749970000000     0.413670000000     0.577850000000     0.00513241 
C76      C      0.864930000000     0.324400000000     0.554350000000     0.00570387 
C77      C      0.216680000000     0.726980000000     0.602430000000    -0.0790496  
C78      C      0.183780000000     0.749210000000     0.557070000000    -0.0779019  
C79      C      0.152940000000     0.795880000000     0.577710000000     0.00458463 
C80      C      0.244790000000     0.677450000000     0.583950000000     0.0047817  
C81      C      0.266400000000     0.051520000000     0.762290000000    -0.080149   
C82      C      0.294770000000     0.091790000000     0.797130000000    -0.0802243  
C83      C      0.337630000000     0.064640000000     0.826570000000     0.00450986 
C84      C      0.222350000000     0.075810000000     0.732410000000     0.00506548 
C85      C      0.740550000000     0.037220000000     0.297480000000    -0.0751873  
C86      C      0.720080000000     0.015840000000     0.351800000000    -0.0707922  
C87      C      0.664330000000     0.016610000000     0.353190000000     0.00602426 
C88      C      0.796330000000     0.039020000000     0.297910000000     0.00552786 
C89      C      0.016830000000     0.745450000000     0.340420000000    -0.0783293  
C90      C      0.012890000000     0.805620000000     0.347720000000    -0.0750486  
C91      C      0.029100000000     0.838200000000     0.297290000000     0.0100009  
C92      C      0.068960000000     0.725720000000     0.329800000000     0.0114139  
C93      C      0.947710000000     0.263630000000     0.825340000000    -0.0787376  
C94      C      0.899250000000     0.290200000000     0.841050000000    -0.0785445  
C95      C      0.904580000000     0.328240000000     0.889730000000     0.00629278 
C96      C      0.941080000000     0.228410000000     0.774720000000     0.00488875 
H1       H      0.872330000000     0.060670000000     0.564420000000    -0.0648983  
H2       H      0.977300000000     0.996430000000     0.656360000000    -0.0631858  
H3       H      0.133850000000     0.057090000000     0.474300000000    -0.0598095  
H4       H      0.937620000000     0.927500000000     0.523360000000    -0.0626988  
H5       H      0.031990000000     0.115120000000     0.380190000000    -0.06265    
H6       H      0.070860000000     0.186470000000     0.520620000000    -0.0610754  
H7       H      0.072710000000     0.423430000000     0.066310000000    -0.0636862  
H8       H      0.020750000000     0.476740000000     0.205420000000    -0.0632095  
H9       H      0.939840000000     0.681660000000     0.081600000000    -0.0624185  
H10      H      0.131580000000     0.547780000000     0.134190000000    -0.0624435  
H11      H      0.991770000000     0.628860000000     0.942600000000    -0.0635138  
H12      H      0.880450000000     0.556290000000     0.013480000000    -0.0639059  
H13      H      0.471210000000     0.411550000000     0.602430000000    -0.0619546  
H14      H      0.547480000000     0.450580000000     0.479600000000    -0.0615443  
H15      H      0.533420000000     0.694840000000     0.553400000000    -0.0607184  
H16      H      0.406230000000     0.492590000000     0.483630000000    -0.0645669  
H17      H      0.452190000000     0.651780000000     0.680100000000    -0.0656103  
H18      H      0.591810000000     0.616120000000     0.671040000000    -0.060295   
H19      H      0.452630000000     0.006970000000     0.218330000000    -0.0625882  
H20      H      0.385570000000     0.091010000000     0.110780000000    -0.0594716  
H21      H      0.566450000000     0.069150000000     0.945470000000    -0.0610343  
H22      H      0.497770000000     0.154700000000     0.182020000000    -0.0637173  
H23      H      0.638040000000     0.988130000000     0.061210000000    -0.0657858  
H24      H      0.523820000000     0.928710000000     0.983670000000    -0.0608092  
H25      H      0.513930000000     0.637350000000     0.277330000000     0.0379882  
H26      H      0.458810000000     0.610910000000     0.247950000000     0.0289201  
H27      H      0.489430000000     0.730830000000     0.099490000000     0.0304016  
H28      H      0.446060000000     0.757040000000     0.147620000000     0.0378439  
H29      H      0.461720000000     0.658140000000     0.156430000000     0.0392721  
H30      H      0.523590000000     0.672060000000     0.175300000000     0.0421614  
H31      H      0.553160000000     0.761960000000     0.176970000000     0.0970236  
H32      H      0.491010000000     0.727810000000     0.255530000000     0.0518389  
H33      H      0.430530000000     0.708500000000     0.235480000000     0.0449641  
H34      H      0.413200000000     0.667330000000     0.320180000000     0.0974502  
H35      H      0.570650000000     0.383950000000     0.829800000000     0.0346165  
H36      H      0.603020000000     0.432570000000     0.870530000000     0.0319572  
H37      H      0.585560000000     0.310110000000     0.019070000000     0.0384643  
H38      H      0.547960000000     0.367240000000     0.021910000000     0.0269819  
H39      H      0.613690000000     0.364300000000     0.946130000000     0.0392869  
H40      H      0.578770000000     0.313260000000     0.912890000000     0.046335   
H41      H      0.481070000000     0.317250000000     0.975110000000     0.0963168  
H42      H      0.508430000000     0.374180000000     0.903500000000     0.0465761  
H43      H      0.538900000000     0.423620000000     0.944130000000     0.0422515  
H44      H      0.512580000000     0.476630000000     0.870990000000     0.0958519  
H45      H      0.806520000000     0.346200000000     0.220550000000     0.0293608  
H46      H      0.793410000000     0.405610000000     0.183180000000     0.0358827  
H47      H      0.685330000000     0.271450000000     0.121380000000     0.0350239  
H48      H      0.734930000000     0.245410000000     0.080830000000     0.0324538  
H49      H      0.745200000000     0.270280000000     0.204310000000     0.0435965  
H50      H      0.792310000000     0.258030000000     0.154880000000     0.0438535  
H51      H      0.731440000000     0.179170000000     0.174740000000     0.0953131  
H52      H      0.759860000000     0.344370000000     0.105140000000     0.0459998  
H53      H      0.723740000000     0.354580000000     0.165540000000     0.0391717  
H54      H      0.853550000000     0.315560000000     0.133510000000     0.0970828  
H55      H      0.264120000000     0.955820000000     0.004780000000     0.0352335  
H56      H      0.280910000000     0.902770000000     0.959260000000     0.0320727  
H57      H      0.161490000000     0.805970000000     0.054130000000     0.0383717  
H58      H      0.137000000000     0.824290000000     0.987990000000     0.030558   
H59      H      0.245350000000     0.806430000000     0.015710000000     0.0477338  
H60      H      0.222140000000     0.825260000000     0.949470000000     0.0428314  
H61      H      0.186670000000     0.736600000000     0.957140000000     0.096648   
H62      H      0.190270000000     0.909300000000     0.985680000000     0.0402048  
H63      H      0.207080000000     0.892090000000     0.054590000000     0.0450031  
H64      H      0.293170000000     0.863730000000     0.069710000000     0.0971638  
H65      H      0.304500000000     0.395910000000     0.778500000000     0.0262317  
H66      H      0.359290000000     0.432610000000     0.786860000000     0.0391152  
H67      H      0.231610000000     0.482220000000     0.910920000000     0.0321616  
H68      H      0.225500000000     0.539070000000     0.866050000000     0.0353416  
H69      H      0.229940000000     0.422840000000     0.827170000000     0.0436928  
H70      H      0.227930000000     0.481490000000     0.784920000000     0.0471936  
H71      H      0.150090000000     0.460160000000     0.841770000000     0.0972357  
H72      H      0.309130000000     0.509910000000     0.825050000000     0.0472072  
H73      H      0.309650000000     0.450670000000     0.866300000000     0.0396229  
H74      H      0.274940000000     0.458170000000     0.709870000000     0.096018   
H75      H      0.772650000000     0.631110000000     0.268140000000     0.0275573  
H76      H      0.785640000000     0.562540000000     0.256930000000     0.0371479  
H77      H      0.756300000000     0.582120000000     0.451870000000     0.0365639  
H78      H      0.754560000000     0.652620000000     0.463290000000     0.03011    
H79      H      0.767680000000     0.666960000000     0.361400000000     0.0425603  
H80      H      0.817350000000     0.635210000000     0.395990000000     0.0391948  
H81      H      0.684950000000     0.642320000000     0.382290000000     0.0966452  
H82      H      0.799360000000     0.549420000000     0.358170000000     0.0464986  
H83      H      0.738880000000     0.568040000000     0.338710000000     0.0447407  
H84      H      0.858630000000     0.638940000000     0.309680000000     0.0951571  
H85      H      0.853330000000     0.296180000000     0.586900000000     0.0349076  
H86      H      0.896400000000     0.347490000000     0.570050000000     0.0320168  
H87      H      0.764150000000     0.454660000000     0.573000000000     0.0349688  
H88      H      0.732820000000     0.401390000000     0.538540000000     0.0339085  
H89      H      0.816070000000     0.395110000000     0.623180000000     0.0433145  
H90      H      0.777790000000     0.338710000000     0.609190000000     0.0435374  
H91      H      0.714310000000     0.382670000000     0.650790000000     0.0962739  
H92      H      0.798020000000     0.342740000000     0.510550000000     0.0461002  
H93      H      0.837270000000     0.398860000000     0.521730000000     0.0423788  
H94      H      0.872320000000     0.311010000000     0.466730000000     0.0967661  
H95      H      0.220160000000     0.649270000000     0.562610000000     0.0303281  
H96      H      0.258360000000     0.657540000000     0.621670000000     0.0389519  
H97      H      0.127550000000     0.782080000000     0.610170000000     0.0311805  
H98      H      0.177490000000     0.826500000000     0.595370000000     0.0372689  
H99      H      0.159040000000     0.717490000000     0.542110000000     0.0426916  
H100     H      0.206430000000     0.762890000000     0.522100000000     0.0454126  
H101     H      0.118710000000     0.795550000000     0.497440000000     0.0947635  
H102     H      0.242780000000     0.757850000000     0.616340000000     0.046307   
H103     H      0.193630000000     0.715900000000     0.638120000000     0.0403396  
H104     H      0.283110000000     0.723880000000     0.522140000000     0.0970625  
H105     H      0.234690000000     0.108730000000     0.705530000000     0.0329651  
H106     H      0.196200000000     0.091620000000     0.763100000000     0.0356839  
H107     H      0.322840000000     0.032380000000     0.852820000000     0.0384452  
H108     H      0.362500000000     0.046710000000     0.795790000000     0.0307163  
H109     H      0.270100000000     0.109620000000     0.828190000000     0.0459308  
H110     H      0.308850000000     0.123850000000     0.770200000000     0.0435637  
H111     H      0.368240000000     0.141650000000     0.846140000000     0.0967976  
H112     H      0.291470000000     0.034220000000     0.731280000000     0.0439953  
H113     H      0.253260000000     0.018900000000     0.789160000000     0.0442756  
H114     H      0.215630000000     0.998540000000     0.694050000000     0.0956024  
H115     H      0.809360000000     0.048660000000     0.255960000000     0.0294419  
H116     H      0.810460000000     0.999050000000     0.308620000000     0.0372483  
H117     H      0.652300000000     0.005590000000     0.395170000000     0.0264835  
H118     H      0.650570000000     0.057380000000     0.345580000000     0.0369572  
H119     H      0.733560000000     0.040680000000     0.386240000000     0.0459466  
H120     H      0.733110000000     0.974660000000     0.358640000000     0.0434341  
H121     H      0.644330000000     0.938310000000     0.325580000000     0.0968169  
H122     H      0.728930000000     0.010910000000     0.263380000000     0.0498046  
H123     H      0.725960000000     0.077520000000     0.289200000000     0.0508345  
H124     H      0.797070000000     0.116700000000     0.335570000000     0.0961913  
H125     H      0.072160000000     0.683900000000     0.343720000000     0.0319337  
H126     H      0.095520000000     0.749070000000     0.354260000000     0.0247909  
H127     H      0.069180000000     0.843860000000     0.298000000000     0.0353748  
H128     H      0.019560000000     0.816860000000     0.258890000000     0.0289614  
H129     H      0.034550000000     0.817550000000     0.384160000000     0.0552141  
H130     H      0.974130000000     0.814640000000     0.356960000000     0.0438254  
H131     H      0.976890000000     0.895470000000     0.268210000000     0.0961723  
H132     H      0.003730000000     0.726770000000     0.378980000000     0.040296   
H133     H      0.991520000000     0.732510000000     0.307570000000     0.0565333  
H134     H      0.106190000000     0.757910000000     0.259080000000     0.0963714  
H135     H      0.926480000000     0.253260000000     0.740800000000     0.0375083  
H136     H      0.914280000000     0.196650000000     0.783960000000     0.0309566  
H137     H      0.867900000000     0.342580000000     0.901830000000     0.0322907  
H138     H      0.920500000000     0.306430000000     0.925090000000     0.0347933  
H139     H      0.872450000000     0.259040000000     0.852270000000     0.0395144  
H140     H      0.884320000000     0.312390000000     0.805410000000     0.0423641  
H141     H      0.942180000000     0.382170000000     0.834290000000     0.097092   
H142     H      0.975590000000     0.294210000000     0.816030000000     0.0497391  
H143     H      0.960880000000     0.239140000000     0.860210000000     0.044487   
H144     H      0.014600000000     0.198160000000     0.786810000000     0.0970756  
Mg1      Mg     0.070280000000     0.972520000000     0.601480000000     0.784812   
Mg2      Mg     0.071730000000     0.120860000000     0.620640000000     0.779016   
Mg3      Mg     0.936190000000     0.995060000000     0.421330000000     0.786935   
Mg4      Mg     0.937890000000     0.147560000000     0.592770000000     0.790798   
Mg5      Mg     0.067490000000     0.964830000000     0.448280000000     0.789861   
Mg6      Mg     0.940280000000     0.142680000000     0.438250000000     0.791281   
Mg7      Mg     0.996560000000     0.589690000000     0.207550000000     0.789003   
Mg8      Mg     0.893550000000     0.526810000000     0.128260000000     0.78596    
Mg9      Mg     0.118710000000     0.577320000000     0.018760000000     0.791619   
Mg10     Mg     0.967810000000     0.425550000000     0.050640000000     0.794294   
Mg11     Mg     0.046920000000     0.679510000000     0.096710000000     0.787165   
Mg12     Mg     0.015250000000     0.515430000000     0.940030000000     0.79728    
Mg13     Mg     0.541000000000     0.566470000000     0.447490000000     0.785345   
Mg14     Mg     0.624440000000     0.558630000000     0.571160000000     0.779873   
Mg15     Mg     0.376040000000     0.543620000000     0.584260000000     0.79586    
Mg16     Mg     0.558720000000     0.455240000000     0.654610000000     0.781745   
Mg17     Mg     0.440930000000     0.651160000000     0.507130000000     0.792785   
Mg18     Mg     0.457220000000     0.541080000000     0.707410000000     0.802467   
Mg19     Mg     0.445330000000     0.138200000000     0.018950000000     0.782704   
Mg20     Mg     0.432350000000     0.993200000000     0.985130000000     0.782496   
Mg21     Mg     0.585300000000     0.086330000000     0.183670000000     0.793027   
Mg22     Mg     0.441720000000     0.933630000000     0.126210000000     0.785878   
Mg23     Mg     0.581080000000     0.143590000000     0.041250000000     0.788102   
Mg24     Mg     0.576790000000     0.942030000000     0.147550000000     0.791583   
N1       N      0.520300000000     0.777230000000     0.162150000000    -0.213486   
N2       N      0.448400000000     0.651640000000     0.322130000000    -0.214037   
N3       N      0.512150000000     0.299280000000     0.991340000000    -0.213142   
N4       N      0.534340000000     0.457400000000     0.841900000000    -0.214793   
N5       N      0.709400000000     0.194850000000     0.143710000000    -0.214852   
N6       N      0.845720000000     0.354120000000     0.146390000000    -0.214448   
N7       N      0.166530000000     0.747340000000     0.991820000000    -0.213904   
N8       N      0.303190000000     0.893370000000     0.041930000000    -0.21414    
N9       N      0.164640000000     0.487890000000     0.869180000000    -0.216712   
N10      N      0.309400000000     0.463130000000     0.727250000000    -0.21541    
N11      N      0.695240000000     0.622660000000     0.418250000000    -0.213673   
N12      N      0.845920000000     0.610080000000     0.282480000000    -0.212936   
N13      N      0.712730000000     0.412360000000     0.620900000000    -0.213402   
N14      N      0.879610000000     0.294740000000     0.505330000000    -0.214152   
N15      N      0.124840000000     0.818630000000     0.532420000000    -0.214923   
N16      N      0.285800000000     0.690880000000     0.547850000000    -0.213173   
N17      N      0.365330000000     0.102530000000     0.859920000000    -0.213181   
N18      N      0.198380000000     0.035230000000     0.698800000000    -0.212579   
N19      N      0.643740000000     0.978290000000     0.314360000000    -0.214252   
N20      N      0.814310000000     0.079750000000     0.335820000000    -0.213415   
N21      N      0.004720000000     0.889910000000     0.296880000000    -0.215877   
N22      N      0.081470000000     0.728820000000     0.271510000000    -0.215256   
N23      N      0.935030000000     0.373920000000     0.875560000000    -0.214688   
N24      N      0.987110000000     0.203860000000     0.757750000000    -0.213941   
O1       O      0.029300000000     0.044620000000     0.625520000000    -0.410147   
O2       O      0.917830000000     0.104280000000     0.517440000000    -0.414367   
O3       O      0.951830000000     0.068490000000     0.635530000000    -0.33959    
O4       O      0.114910000000     0.092440000000     0.545420000000    -0.335913   
O5       O      0.042500000000     0.918690000000     0.374080000000    -0.347329   
O6       O      0.031480000000     0.156380000000     0.696240000000    -0.339641   
O7       O      0.999580000000     0.937430000000     0.566630000000    -0.338766   
O8       O      0.015560000000     0.153790000000     0.563610000000    -0.406675   
O9       O      0.870600000000     0.113940000000     0.393790000000    -0.342066   
O10      O      0.974160000000     0.958100000000     0.346080000000    -0.344154   
O11      O      0.892120000000     0.023770000000     0.494650000000    -0.34135    
O12      O      0.914570000000     0.227320000000     0.553610000000    -0.341045   
O13      O      0.133070000000     0.086550000000     0.674830000000    -0.336789   
O14      O      0.086600000000     0.885910000000     0.489550000000    -0.347931   
O15      O      0.991200000000     0.962740000000     0.479690000000    -0.412125   
O16      O      0.979900000000     0.069730000000     0.415170000000    -0.412924   
O17      O      0.055870000000     0.042430000000     0.401510000000    -0.338794   
O18      O      0.903510000000     0.219500000000     0.463060000000    -0.345672   
O19      O      0.090210000000     0.011510000000     0.521640000000    -0.408277   
O20      O      0.010500000000     0.175430000000     0.475130000000    -0.338264   
O21      O      0.109900000000     0.896640000000     0.576520000000    -0.342733   
O22      O      0.958180000000     0.187580000000     0.672320000000    -0.345528   
O23      O      0.139300000000     0.003410000000     0.643780000000    -0.343015   
O24      O      0.877870000000     0.029870000000     0.366010000000    -0.342116   
O25      O      0.967400000000     0.517630000000     0.167150000000    -0.412079   
O26      O      0.030750000000     0.468080000000     0.016280000000    -0.414299   
O27      O      0.996820000000     0.441060000000     0.136680000000    -0.340613   
O28      O      0.908150000000     0.613230000000     0.104850000000    -0.339064   
O29      O      0.111150000000     0.721980000000     0.056340000000    -0.340683   
O30      O      0.870130000000     0.440540000000     0.147240000000    -0.341852   
O31      O      0.072980000000     0.566570000000     0.179790000000    -0.339257   
O32      O      0.924160000000     0.501430000000     0.048460000000    -0.411366   
O33      O      0.089720000000     0.495510000000     0.905260000000    -0.350403   
O34      O      0.140010000000     0.662740000000     0.996260000000    -0.344208   
O35      O      0.105010000000     0.491550000000     0.043440000000    -0.340725   
O36      O      0.942550000000     0.400090000000     0.964450000000    -0.343465   
O37      O      0.862590000000     0.557120000000     0.209110000000    -0.342555   
O38      O      0.073540000000     0.702960000000     0.183030000000    -0.344303   
O39      O      0.088800000000     0.603150000000     0.098600000000    -0.412439   
O40      O      0.044400000000     0.586840000000     0.980900000000    -0.4126     
O41      O      0.017070000000     0.664640000000     0.010750000000    -0.340372   
O42      O      0.982450000000     0.443550000000     0.898450000000    -0.347057   
O43      O      0.982470000000     0.637380000000     0.131270000000    -0.409556   
O44      O      0.938850000000     0.538310000000     0.967230000000    -0.341354   
O45      O      0.030540000000     0.661550000000     0.248140000000    -0.346243   
O46      O      0.905260000000     0.382500000000     0.090230000000    -0.348758   
O47      O      0.920920000000     0.609050000000     0.243970000000    -0.343949   
O48      O      0.149960000000     0.545270000000     0.939090000000    -0.344976   
O49      O      0.570420000000     0.517650000000     0.516940000000    -0.407551   
O50      O      0.480800000000     0.476810000000     0.649360000000    -0.411365   
O51      O      0.557930000000     0.441720000000     0.561090000000    -0.336341   
O52      O      0.584830000000     0.638380000000     0.561880000000    -0.335805   
O53      O      0.360450000000     0.674550000000     0.511840000000    -0.341238   
O54      O      0.669440000000     0.481240000000     0.584770000000    -0.336565   
O55      O      0.469050000000     0.522510000000     0.454660000000    -0.341342   
O56      O      0.578410000000     0.541520000000     0.644780000000    -0.407671   
O57      O      0.385250000000     0.497830000000     0.719920000000    -0.348067   
O58      O      0.329360000000     0.618420000000     0.573620000000    -0.343018   
O59      O      0.418470000000     0.466070000000     0.591800000000    -0.338769   
O60      O      0.556870000000     0.456520000000     0.751160000000    -0.336568   
O61      O      0.670350000000     0.580730000000     0.496170000000    -0.3411     
O62      O      0.438390000000     0.646390000000     0.413570000000    -0.346074   
O63      O      0.421770000000     0.565140000000     0.514110000000    -0.4163     
O64      O      0.427460000000     0.587310000000     0.639530000000    -0.419439   
O65      O      0.443920000000     0.664220000000     0.599120000000    -0.342722   
O66      O      0.489360000000     0.498200000000     0.778250000000    -0.355554   
O67      O      0.519610000000     0.629370000000     0.508140000000    -0.407566   
O68      O      0.528750000000     0.586570000000     0.699970000000    -0.339034   
O69      O      0.506750000000     0.614070000000     0.376620000000    -0.338582   
O70      O      0.638800000000     0.433810000000     0.654450000000    -0.344129   
O71      O      0.615750000000     0.605000000000     0.432810000000    -0.344132   
O72      O      0.329930000000     0.515070000000     0.655390000000    -0.349205   
O73      O      0.421860000000     0.057820000000     0.047280000000    -0.406753   
O74      O      0.502770000000     0.973110000000     0.168800000000    -0.414884   
O75      O      0.402210000000     0.014100000000     0.123650000000    -0.334791   
O76      O      0.502400000000     0.030440000000     0.951090000000    -0.336318   
O77      O      0.643840000000     0.182330000000     0.088090000000    -0.341774   
O78      O      0.361970000000     0.950670000000     0.013230000000    -0.340522   
O79      O      0.466960000000     0.157780000000     0.107080000000    -0.340037   
O80      O      0.477710000000     0.948290000000     0.045080000000    -0.410057   
O81      O      0.605220000000     0.955530000000     0.235660000000    -0.343179   
O82      O      0.655910000000     0.129200000000     0.160330000000    -0.34667    
O83      O      0.514980000000     0.048630000000     0.213940000000    -0.340712   
O84      O      0.478260000000     0.850800000000     0.134990000000    -0.338218   
O85      O      0.389000000000     0.040230000000     0.922070000000    -0.341798   
O86      O      0.547300000000     0.225080000000     0.026160000000    -0.34553    
O87      O      0.542810000000     0.130760000000     0.121320000000    -0.41304    
O88      O      0.599390000000     0.022180000000     0.122320000000    -0.415647   
O89      O      0.620850000000     0.064340000000     0.046000000000    -0.341903   
O90      O      0.553570000000     0.858600000000     0.168850000000    -0.346654   
O91      O      0.519180000000     0.104040000000     0.997810000000    -0.405999   
O92      O      0.555030000000     0.925050000000     0.058450000000    -0.338064   
O93      O      0.471210000000     0.221160000000     0.994220000000    -0.341363   
O94      O      0.376000000000     0.897210000000     0.084630000000    -0.346893   
O95      O      0.413790000000     0.124030000000     0.931910000000    -0.340697   
O96      O      0.624870000000     0.040300000000     0.250080000000    -0.344595   


