data_structure

_audit_creation_method RASPA-1.0
_audit_creation_date 2023-5-9
_audit_author_name 'Poobodin Mano'

_cell_length_a    23.3992
_cell_length_b    23.2401
_cell_length_c    23.2323
_cell_angle_alpha 89.9989
_cell_angle_beta  90.0003
_cell_angle_gamma 89.9992
_cell_volume      12633.7

_symmetry_cell_setting          triclinic
_symmetry_space_group_name_Hall 'P 1'
_symmetry_space_group_name_H-M  'P 1'
_symmetry_Int_Tables_number     1

_symmetry_equiv_pos_as_xyz 'x,y,z'

loop_
_atom_site_label
_atom_site_type_symbol
_atom_site_fract_x
_atom_site_fract_y
_atom_site_fract_z
_atom_site_charge
C1       C      0.001300000000     0.122900000000     0.471840000000     0.354734   
C2       C      0.997110000000     0.831630000000     0.319820000000     0.385987   
C3       C      0.792830000000     0.960580000000     0.360530000000     0.376981   
C4       C      0.986100000000     0.004000000000     0.360440000000     0.363731   
C5       C      0.830990000000     0.165150000000     0.483670000000     0.379603   
C6       C      0.985740000000     0.162710000000     0.664000000000     0.38691    
C7       C      0.862400000000     0.978250000000     0.522300000000     0.363794   
C8       C      0.122510000000     0.008770000000     0.468130000000     0.362706   
C9       C      0.993000000000     0.988170000000     0.628850000000     0.356147   
C10      C      0.979380000000     0.865340000000     0.513710000000     0.355676   
C11      C      0.187190000000     0.023360000000     0.631290000000     0.37415    
C12      C      0.151760000000     0.821080000000     0.503640000000     0.383536   
C13      C      0.887090000000     0.464050000000     0.913220000000     0.360183   
C14      C      0.124030000000     0.693280000000     0.975990000000     0.374525   
C15      C      0.157470000000     0.500970000000     0.826530000000     0.38721    
C16      C      0.998570000000     0.594150000000     0.897460000000     0.357281   
C17      C      0.973880000000     0.347740000000     0.810920000000     0.377582   
C18      C      0.856290000000     0.295040000000     0.012430000000     0.375405   
C19      C      0.081140000000     0.412820000000     0.957680000000     0.360026   
C20      C      0.889870000000     0.577450000000     0.024970000000     0.355481   
C21      C      0.979030000000     0.402020000000     0.086140000000     0.357254   
C22      C      0.082920000000     0.529270000000     0.076400000000     0.357201   
C23      C      0.817570000000     0.491360000000     0.158670000000     0.371391   
C24      C      0.996190000000     0.648320000000     0.170290000000     0.378019   
C25      C      0.595910000000     0.492690000000     0.595230000000     0.362436   
C26      C      0.327220000000     0.663240000000     0.490420000000     0.375089   
C27      C      0.319240000000     0.488940000000     0.655600000000     0.389424   
C28      C      0.462110000000     0.599490000000     0.579890000000     0.355201   
C29      C      0.520960000000     0.370050000000     0.703560000000     0.372308   
C30      C      0.664500000000     0.328780000000     0.508920000000     0.389742   
C31      C      0.419150000000     0.399830000000     0.540240000000     0.359047   
C32      C      0.576930000000     0.598880000000     0.464110000000     0.359011   
C33      C      0.532320000000     0.402690000000     0.420440000000     0.357912   
C34      C      0.406120000000     0.502330000000     0.405040000000     0.354654   
C35      C      0.679430000000     0.509640000000     0.349400000000     0.374165   
C36      C      0.476730000000     0.625430000000     0.296490000000     0.374053   
C37      C      0.491690000000     0.863090000000     0.967050000000     0.356948   
C38      C      0.688050000000     0.130210000000     0.006650000000     0.378029   
C39      C      0.630330000000     0.976920000000     0.190510000000     0.376567   
C40      C      0.621110000000     0.965820000000     0.992000000000     0.358292   
C41      C      0.479720000000     0.795110000000     0.131810000000     0.37769    
C42      C      0.295160000000     0.855500000000     0.983470000000     0.376847   
C43      C      0.467160000000     0.993000000000     0.125520000000     0.358409   
C44      C      0.516010000000     0.993150000000     0.863770000000     0.357855   
C45      C      0.362370000000     0.020330000000     0.997490000000     0.356313   
C46      C      0.491780000000     0.123240000000     0.022220000000     0.356811   
C47      C      0.352390000000     0.009110000000     0.799170000000     0.375146   
C48      C      0.505170000000     0.191970000000     0.858710000000     0.376398   
C49      C      0.425770000000     0.733280000000     0.193100000000     0.0284385  
C50      C      0.523260000000     0.714210000000     0.175950000000     0.0299012  
C51      C      0.521770000000     0.670080000000     0.216600000000     0.0257303  
C52      C      0.425350000000     0.691620000000     0.236840000000     0.0263469  
C53      C      0.471340000000     0.323830000000     0.779790000000     0.0257036  
C54      C      0.566660000000     0.297530000000     0.759890000000     0.0269728  
C55      C      0.562800000000     0.253420000000     0.800850000000     0.0286684  
C56      C      0.466080000000     0.276870000000     0.817080000000     0.0298202  
C57      C      0.811850000000     0.216150000000     0.965610000000     0.0260838  
C58      C      0.790090000000     0.235020000000     0.062940000000     0.0266984  
C59      C      0.748930000000     0.191140000000     0.061800000000     0.0286143  
C60      C      0.768060000000     0.175510000000     0.963360000000     0.0300435  
C61      C      0.169570000000     0.771290000000     0.023310000000     0.0262412  
C62      C      0.193000000000     0.751000000000     0.926670000000     0.0269193  
C63      C      0.234770000000     0.794290000000     0.928150000000     0.0287164  
C64      C      0.214160000000     0.811110000000     0.026080000000     0.0299437  
C65      C      0.181290000000     0.484970000000     0.728640000000     0.0286358  
C66      C      0.254410000000     0.497910000000     0.797570000000     0.029434   
C67      C      0.295210000000     0.491650000000     0.754400000000     0.0283543  
C68      C      0.222030000000     0.483620000000     0.684780000000     0.0295314  
C69      C      0.768580000000     0.448410000000     0.236630000000     0.0263299  
C70      C      0.762140000000     0.548810000000     0.222050000000     0.027559   
C71      C      0.726380000000     0.553440000000     0.270030000000     0.0273939  
C72      C      0.737630000000     0.453970000000     0.287690000000     0.0256837  
C73      C      0.804540000000     0.261930000000     0.500120000000     0.0286063  
C74      C      0.733640000000     0.191140000000     0.484070000000     0.0263157  
C75      C      0.691080000000     0.231840000000     0.494370000000     0.030981   
C76      C      0.762020000000     0.303720000000     0.504220000000     0.0309824  
C77      C      0.217070000000     0.765920000000     0.448720000000     0.0288921  
C78      C      0.213200000000     0.753350000000     0.549490000000     0.0298598  
C79      C      0.257460000000     0.713030000000     0.545900000000     0.0271541  
C80      C      0.264010000000     0.729150000000     0.445790000000     0.0265639  
C81      C      0.256420000000     0.070880000000     0.690840000000     0.0281308  
C82      C      0.260170000000     0.970280000000     0.678710000000     0.0262018  
C83      C      0.300930000000     0.966250000000     0.722240000000     0.0295102  
C84      C      0.299490000000     0.067070000000     0.732820000000     0.0276286  
C85      C      0.719130000000     0.013480000000     0.314190000000     0.0257534  
C86      C      0.725700000000     0.913530000000     0.298310000000     0.0281167  
C87      C      0.683330000000     0.917910000000     0.255720000000     0.0276649  
C88      C      0.679370000000     0.018250000000     0.269800000000     0.0294606  
C89      C      0.947660000000     0.757510000000     0.271070000000     0.0288033  
C90      C      0.045110000000     0.774180000000     0.250300000000     0.0301469  
C91      C      0.044950000000     0.727340000000     0.212730000000     0.0262949  
C92      C      0.948620000000     0.708570000000     0.236700000000     0.0256894  
C93      C      0.934360000000     0.217830000000     0.732480000000     0.0305936  
C94      C      0.030310000000     0.241130000000     0.711060000000     0.0294241  
C95      C      0.025520000000     0.290900000000     0.744240000000     0.0253402  
C96      C      0.931030000000     0.265160000000     0.769180000000     0.0264091  
H1       H      0.846520000000     0.977100000000     0.565980000000    -0.0615306  
H2       H      0.992260000000     0.947250000000     0.650980000000    -0.060441   
H3       H      0.139700000000     0.009750000000     0.424950000000    -0.0648258  
H4       H      0.938710000000     0.845120000000     0.522540000000    -0.0606701  
H5       H      0.985400000000     0.045620000000     0.339690000000    -0.0622258  
H6       H      0.040710000000     0.144470000000     0.460690000000    -0.0583736  
H7       H      0.087880000000     0.372650000000     0.980130000000    -0.0607953  
H8       H      0.007150000000     0.402100000000     0.123060000000    -0.0566657  
H9       H      0.879780000000     0.616850000000     0.002410000000    -0.0572935  
H10      H      0.124500000000     0.509010000000     0.077060000000    -0.0578746  
H11      H      0.972000000000     0.595560000000     0.859410000000    -0.0615078  
H12      H      0.845580000000     0.484390000000     0.915100000000    -0.0580098  
H13      H      0.422270000000     0.357180000000     0.521930000000    -0.0611243  
H14      H      0.508580000000     0.394630000000     0.381350000000    -0.0587376  
H15      H      0.574980000000     0.641290000000     0.483120000000    -0.0579501  
H16      H      0.369880000000     0.473480000000     0.404910000000    -0.0573765  
H17      H      0.484550000000     0.611560000000     0.618730000000    -0.0602885  
H18      H      0.633440000000     0.519790000000     0.593940000000    -0.0635916  
H19      H      0.424270000000     0.999070000000     0.141730000000    -0.0618393  
H20      H      0.347200000000     0.063750000000     0.004190000000    -0.0605891  
H21      H      0.558870000000     0.986880000000     0.847560000000    -0.0614497  
H22      H      0.486370000000     0.138430000000     0.065860000000    -0.0611204  
H23      H      0.636080000000     0.922290000000     0.985550000000    -0.061571   
H24      H      0.496980000000     0.848130000000     0.923320000000    -0.0611605  
H25      H      0.386990000000     0.757710000000     0.185560000000     0.033259   
H26      H      0.563200000000     0.722390000000     0.153690000000     0.0334936  
H27      H      0.561060000000     0.646550000000     0.224270000000     0.0384174  
H28      H      0.386150000000     0.684870000000     0.260820000000     0.0365436  
H29      H      0.433770000000     0.350200000000     0.772600000000     0.0383532  
H30      H      0.606670000000     0.303310000000     0.737040000000     0.0366757  
H31      H      0.600030000000     0.226460000000     0.807600000000     0.0335203  
H32      H      0.425220000000     0.269460000000     0.837860000000     0.0336928  
H33      H      0.835330000000     0.224480000000     0.926230000000     0.037936   
H34      H      0.796650000000     0.258460000000     0.102750000000     0.0366493  
H35      H      0.724620000000     0.182970000000     0.100690000000     0.0331133  
H36      H      0.759990000000     0.153850000000     0.922790000000     0.0332862  
H37      H      0.145140000000     0.763660000000     0.062260000000     0.0373117  
H38      H      0.186790000000     0.727270000000     0.886970000000     0.0366311  
H39      H      0.259900000000     0.801710000000     0.889640000000     0.0328505  
H40      H      0.221910000000     0.832990000000     0.066590000000     0.0330515  
H41      H      0.136550000000     0.482020000000     0.716750000000     0.0328787  
H42      H      0.268820000000     0.504270000000     0.841500000000     0.03343    
H43      H      0.339860000000     0.494680000000     0.766600000000     0.0325081  
H44      H      0.207690000000     0.479140000000     0.640600000000     0.0332929  
H45      H      0.784320000000     0.406150000000     0.224700000000     0.0345989  
H46      H      0.771880000000     0.587380000000     0.197630000000     0.0356235  
H47      H      0.709390000000     0.595380000000     0.281320000000     0.0348111  
H48      H      0.728920000000     0.415430000000     0.312540000000     0.0358897  
H49      H      0.848940000000     0.274900000000     0.503730000000     0.0352377  
H50      H      0.721000000000     0.146980000000     0.475790000000     0.0342224  
H51      H      0.646660000000     0.218560000000     0.492580000000     0.0315742  
H52      H      0.774610000000     0.348070000000     0.511440000000     0.0304774  
H53      H      0.202720000000     0.785900000000     0.409070000000     0.0331826  
H54      H      0.194890000000     0.762600000000     0.591360000000     0.0338327  
H55      H      0.271880000000     0.692520000000     0.585240000000     0.0377315  
H56      H      0.282870000000     0.720950000000     0.403930000000     0.0362029  
H57      H      0.239220000000     0.112960000000     0.680580000000     0.0360911  
H58      H      0.246390000000     0.930420000000     0.658810000000     0.0376492  
H59      H      0.316800000000     0.923850000000     0.733460000000     0.0346474  
H60      H      0.313410000000     0.106470000000     0.753500000000     0.0353436  
H61      H      0.731540000000     0.052890000000     0.335830000000     0.0374326  
H62      H      0.743820000000     0.871540000000     0.307300000000     0.0354481  
H63      H      0.670740000000     0.878990000000     0.233320000000     0.0347971  
H64      H      0.662760000000     0.060650000000     0.259690000000     0.034256   
H65      H      0.908230000000     0.767530000000     0.293470000000     0.0335102  
H66      H      0.084350000000     0.798520000000     0.255350000000     0.0335579  
H67      H      0.084050000000     0.717140000000     0.189820000000     0.0369765  
H68      H      0.909460000000     0.683920000000     0.232520000000     0.0368248  
H69      H      0.897040000000     0.190490000000     0.728070000000     0.0333148  
H70      H      0.070180000000     0.233390000000     0.688540000000     0.0324354  
H71      H      0.062640000000     0.318640000000     0.747850000000     0.0370592  
H72      H      0.891380000000     0.272700000000     0.792160000000     0.0366709  
Mg1      Mg     0.091830000000     0.927980000000     0.575750000000     0.7925     
Mg2      Mg     0.074710000000     0.088900000000     0.575370000000     0.784068   
Mg3      Mg     0.908540000000     0.899330000000     0.412770000000     0.786612   
Mg4      Mg     0.912770000000     0.088720000000     0.568840000000     0.796042   
Mg5      Mg     0.071510000000     0.904540000000     0.415680000000     0.798441   
Mg6      Mg     0.885260000000     0.057500000000     0.415010000000     0.799427   
Mg7      Mg     0.950070000000     0.524330000000     0.129950000000     0.789137   
Mg8      Mg     0.857380000000     0.436940000000     0.038530000000     0.781216   
Mg9      Mg     0.118030000000     0.550530000000     0.951970000000     0.785849   
Mg10     Mg     0.963950000000     0.359150000000     0.949950000000     0.793544   
Mg11     Mg     0.010540000000     0.633890000000     0.033420000000     0.795117   
Mg12     Mg     0.017530000000     0.474090000000     0.852150000000     0.796371   
Mg13     Mg     0.541260000000     0.519070000000     0.361760000000     0.788997   
Mg14     Mg     0.639250000000     0.468500000000     0.476890000000     0.796033   
Mg15     Mg     0.359230000000     0.527960000000     0.525640000000     0.788235   
Mg16     Mg     0.540710000000     0.370090000000     0.560100000000     0.785265   
Mg17     Mg     0.450920000000     0.625800000000     0.438410000000     0.784016   
Mg18     Mg     0.462350000000     0.483970000000     0.642120000000     0.800263   
Mg19     Mg     0.419940000000     0.085890000000     0.903910000000     0.784142   
Mg20     Mg     0.398490000000     0.922650000000     0.904470000000     0.78637    
Mg21     Mg     0.584700000000     0.063570000000     0.085450000000     0.786655   
Mg22     Mg     0.401680000000     0.900880000000     0.067240000000     0.786211   
Mg23     Mg     0.581730000000     0.084780000000     0.922590000000     0.789572   
Mg24     Mg     0.563660000000     0.901050000000     0.084930000000     0.789748   
N1       N      0.475710000000     0.746720000000     0.165310000000    -0.171874   
N2       N      0.473860000000     0.661090000000     0.249420000000    -0.170884   
N3       N      0.520570000000     0.332030000000     0.748770000000    -0.170445   
N4       N      0.511580000000     0.241250000000     0.826850000000    -0.171431   
N5       N      0.820620000000     0.248190000000     0.014410000000    -0.1712     
N6       N      0.735840000000     0.163990000000     0.011080000000    -0.17191    
N7       N      0.161060000000     0.739070000000     0.974590000000    -0.170876   
N8       N      0.247260000000     0.821870000000     0.978780000000    -0.171574   
N9       N      0.197650000000     0.494260000000     0.784540000000    -0.174307   
N10      N      0.278840000000     0.486780000000     0.697930000000    -0.174636   
N11      N      0.781900000000     0.496070000000     0.204880000000    -0.173021   
N12      N      0.715470000000     0.506200000000     0.303340000000    -0.173593   
N13      N      0.790010000000     0.206260000000     0.488520000000    -0.174474   
N14      N      0.705660000000     0.288050000000     0.502790000000    -0.175637   
N15      N      0.192800000000     0.779230000000     0.500750000000    -0.173234   
N16      N      0.283580000000     0.702180000000     0.494230000000    -0.171946   
N17      N      0.235260000000     0.022120000000     0.665440000000    -0.169925   
N18      N      0.319060000000     0.014370000000     0.750770000000    -0.170811   
N19      N      0.745080000000     0.961780000000     0.325970000000    -0.17072    
N20      N      0.662960000000     0.970800000000     0.239240000000    -0.171243   
N21      N      0.996380000000     0.789130000000     0.279250000000    -0.174141   
N22      N      0.997060000000     0.693940000000     0.207230000000    -0.174319   
N23      N      0.984100000000     0.205830000000     0.703830000000    -0.174405   
N24      N      0.976160000000     0.302270000000     0.773810000000    -0.173734   
O1       O      0.037490000000     0.001920000000     0.600860000000    -0.408371   
O2       O      0.886040000000     0.023680000000     0.504070000000    -0.419248   
O3       O      0.946410000000     0.015660000000     0.624560000000    -0.338092   
O4       O      0.121670000000     0.055090000000     0.496640000000    -0.341282   
O5       O      0.044400000000     0.844390000000     0.344110000000    -0.339245   
O6       O      0.033810000000     0.140370000000     0.649910000000    -0.337616   
O7       O      0.012610000000     0.874750000000     0.555730000000    -0.339475   
O8       O      0.995990000000     0.101870000000     0.521920000000    -0.4052     
O9       O      0.807230000000     0.006970000000     0.386130000000    -0.33925    
O10      O      0.949550000000     0.852480000000     0.337170000000    -0.341172   
O11      O      0.862750000000     0.931970000000     0.493520000000    -0.340152   
O12      O      0.873000000000     0.165190000000     0.518710000000    -0.333101   
O13      O      0.156340000000     0.069020000000     0.628560000000    -0.327219   
O14      O      0.123840000000     0.833540000000     0.458030000000    -0.341315   
O15      O      0.988370000000     0.885290000000     0.463740000000    -0.404943   
O16      O      0.942050000000     0.987420000000     0.387340000000    -0.415227   
O17      O      0.033620000000     0.978440000000     0.364630000000    -0.342451   
O18      O      0.824660000000     0.125540000000     0.446520000000    -0.343694   
O19      O      0.097080000000     0.963940000000     0.485200000000    -0.414016   
O20      O      0.964390000000     0.114760000000     0.432450000000    -0.334528   
O21      O      0.146860000000     0.851020000000     0.549540000000    -0.336453   
O22      O      0.939720000000     0.150090000000     0.637650000000    -0.34347    
O23      O      0.170650000000     0.976190000000     0.608220000000    -0.337409   
O24      O      0.825810000000     0.916530000000     0.360790000000    -0.32974    
O25      O      0.941960000000     0.441550000000     0.081370000000    -0.412775   
O26      O      0.035120000000     0.419890000000     0.929870000000    -0.413177   
O27      O      0.988730000000     0.366210000000     0.045910000000    -0.334792   
O28      O      0.854290000000     0.535980000000     0.023190000000    -0.329755   
O29      O      0.085370000000     0.692080000000     0.014640000000    -0.338722   
O30      O      0.849590000000     0.336520000000     0.048230000000    -0.327705   
O31      O      0.047870000000     0.517410000000     0.116670000000    -0.331131   
O32      O      0.902160000000     0.431260000000     0.954120000000    -0.41249    
O33      O      0.108900000000     0.477060000000     0.819930000000    -0.344036   
O34      O      0.132000000000     0.650320000000     0.942190000000    -0.328594   
O35      O      0.116230000000     0.453430000000     0.966270000000    -0.33859    
O36      O      0.941270000000     0.344860000000     0.854750000000    -0.334775   
O37      O      0.816600000000     0.446160000000     0.127540000000    -0.335494   
O38      O      0.031660000000     0.646500000000     0.128880000000    -0.336371   
O39      O      0.069020000000     0.559450000000     0.032990000000    -0.413367   
O40      O      0.033210000000     0.552700000000     0.903610000000    -0.409707   
O41      O      0.988590000000     0.629820000000     0.937530000000    -0.33791    
O42      O      0.007340000000     0.390340000000     0.803660000000    -0.339873   
O43      O      0.938060000000     0.572660000000     0.049450000000    -0.411569   
O44      O      0.921230000000     0.479030000000     0.873350000000    -0.335951   
O45      O      0.958270000000     0.609500000000     0.175890000000    -0.341658   
O46      O      0.892180000000     0.298810000000     0.971400000000    -0.3407     
O47      O      0.853230000000     0.531570000000     0.148720000000    -0.331218   
O48      O      0.168170000000     0.533080000000     0.869880000000    -0.337703   
O49      O      0.561740000000     0.448360000000     0.424130000000    -0.41112    
O50      O      0.459630000000     0.417780000000     0.571820000000    -0.413265   
O51      O      0.523730000000     0.369770000000     0.463120000000    -0.337131   
O52      O      0.617690000000     0.565700000000     0.478670000000    -0.33543    
O53      O      0.362760000000     0.666640000000     0.448720000000    -0.33568    
O54      O      0.671530000000     0.377020000000     0.483880000000    -0.344217   
O55      O      0.446270000000     0.493220000000     0.369250000000    -0.333822   
O56      O      0.589100000000     0.455230000000     0.556400000000    -0.412326   
O57      O      0.370230000000     0.474680000000     0.668160000000    -0.347884   
O58      O      0.330110000000     0.622790000000     0.527570000000    -0.333885   
O59      O      0.379450000000     0.432360000000     0.522390000000    -0.339552   
O60      O      0.552980000000     0.359680000000     0.659850000000    -0.327911   
O61      O      0.686410000000     0.475750000000     0.391890000000    -0.33795    
O62      O      0.440820000000     0.631320000000     0.337820000000    -0.327878   
O63      O      0.410130000000     0.539560000000     0.444790000000    -0.410234   
O64      O      0.438310000000     0.550570000000     0.577480000000    -0.406977   
O65      O      0.465490000000     0.632500000000     0.536400000000    -0.3339     
O66      O      0.484380000000     0.410870000000     0.702900000000    -0.335272   
O67      O      0.535690000000     0.581920000000     0.433070000000    -0.412077   
O68      O      0.556720000000     0.505100000000     0.630600000000    -0.342807   
O69      O      0.518530000000     0.590530000000     0.300620000000    -0.339487   
O70      O      0.621410000000     0.318700000000     0.541120000000    -0.337834   
O71      O      0.636290000000     0.543080000000     0.346880000000    -0.331471   
O72      O      0.306890000000     0.511250000000     0.606940000000    -0.337433   
O73      O      0.386750000000     0.008290000000     0.950310000000    -0.405807   
O74      O      0.478910000000     0.946590000000     0.099520000000    -0.408563   
O75      O      0.362520000000     0.986470000000     0.040220000000    -0.339107   
O76      O      0.482530000000     0.950360000000     0.863700000000    -0.339545   
O77      O      0.661720000000     0.128210000000     0.958350000000    -0.334111   
O78      O      0.315360000000     0.880080000000     0.938410000000    -0.333244   
O79      O      0.448700000000     0.124340000000     0.989230000000    -0.339162   
O80      O      0.445480000000     0.888080000000     0.980600000000    -0.406992   
O81      O      0.605250000000     0.932730000000     0.169320000000    -0.334449   
O82      O      0.667880000000     0.105930000000     0.051860000000    -0.334038   
O83      O      0.500570000000     0.035840000000     0.125880000000    -0.340116   
O84      O      0.434520000000     0.816170000000     0.108740000000    -0.333123   
O85      O      0.353430000000     0.960710000000     0.825720000000    -0.332321   
O86      O      0.549310000000     0.169360000000     0.882230000000    -0.334944   
O87      O      0.537800000000     0.097680000000     0.009070000000    -0.406898   
O88      O      0.596870000000     0.978270000000     0.039130000000    -0.408764   
O89      O      0.620820000000     0.999280000000     0.949010000000    -0.340483   
O90      O      0.527910000000     0.821040000000     0.128740000000    -0.334748   
O91      O      0.504450000000     0.039690000000     0.889670000000    -0.408283   
O92      O      0.535030000000     0.862510000000     0.999680000000    -0.339746   
O93      O      0.456280000000     0.167020000000     0.860090000000    -0.330575   
O94      O      0.321490000000     0.857160000000     0.031810000000    -0.333142   
O95      O      0.377890000000     0.053620000000     0.819380000000    -0.332233   
O96      O      0.629510000000     0.025720000000     0.164690000000    -0.332253   


