data_structure

_audit_creation_method RASPA-1.0
_audit_creation_date 2023-5-9
_audit_author_name 'Poobodin Mano'

_cell_length_a    23.2243
_cell_length_b    21.0222
_cell_length_c    22.9041
_cell_angle_alpha 89.9989
_cell_angle_beta  90.0003
_cell_angle_gamma 89.9992
_cell_volume      11182.4

_symmetry_cell_setting          triclinic
_symmetry_space_group_name_Hall 'P 1'
_symmetry_space_group_name_H-M  'P 1'
_symmetry_Int_Tables_number     1

_symmetry_equiv_pos_as_xyz 'x,y,z'

loop_
_atom_site_label
_atom_site_type_symbol
_atom_site_fract_x
_atom_site_fract_y
_atom_site_fract_z
_atom_site_charge
C1       C      0.066140000000     0.030990000000     0.384100000000     0.35884    
C2       C      0.956980000000     0.263730000000     0.611520000000     0.374742   
C3       C      0.151260000000     0.107910000000     0.654060000000     0.380447   
C4       C      0.045170000000     0.172160000000     0.489870000000     0.355129   
C5       C      0.204490000000     0.946650000000     0.465470000000     0.369977   
C6       C      0.015780000000     0.819970000000     0.363150000000     0.370627   
C7       C      0.049560000000     0.968030000000     0.584560000000     0.355184   
C8       C      0.920060000000     0.113350000000     0.392880000000     0.357626   
C9       C      0.925290000000     0.911170000000     0.489050000000     0.355288   
C10      C      0.901450000000     0.051260000000     0.593150000000     0.356765   
C11      C      0.821400000000     0.981390000000     0.323430000000     0.3728     
C12      C      0.764100000000     0.133330000000     0.518480000000     0.373613   
C13      C      0.884930000000     0.531610000000     0.909290000000     0.35641    
C14      C      0.098000000000     0.766940000000     0.029070000000     0.374499   
C15      C      0.151920000000     0.604590000000     0.834110000000     0.365238   
C16      C      0.983570000000     0.667910000000     0.937770000000     0.35478    
C17      C      0.967960000000     0.442780000000     0.776590000000     0.370244   
C18      C      0.854990000000     0.323060000000     0.961080000000     0.372219   
C19      C      0.082310000000     0.469260000000     0.935680000000     0.35248    
C20      C      0.890780000000     0.612870000000     0.065380000000     0.359916   
C21      C      0.979900000000     0.405470000000     0.057370000000     0.357067   
C22      C      0.088070000000     0.549420000000     0.079090000000     0.35712    
C23      C      0.821790000000     0.470770000000     0.163740000000     0.379251   
C24      C      0.014540000000     0.624560000000     0.223900000000     0.373726   
C25      C      0.596770000000     0.539190000000     0.588560000000     0.356763   
C26      C      0.368900000000     0.765630000000     0.470680000000     0.373437   
C27      C      0.330600000000     0.606260000000     0.672410000000     0.365351   
C28      C      0.491700000000     0.674280000000     0.562040000000     0.354691   
C29      C      0.523510000000     0.452860000000     0.727800000000     0.374128   
C30      C      0.626530000000     0.329730000000     0.533460000000     0.371731   
C31      C      0.400170000000     0.471070000000     0.570580000000     0.352667   
C32      C      0.583500000000     0.620700000000     0.434620000000     0.358442   
C33      C      0.499360000000     0.412310000000     0.443840000000     0.35792    
C34      C      0.388130000000     0.549750000000     0.423770000000     0.356066   
C35      C      0.655330000000     0.484940000000     0.334050000000     0.379395   
C36      C      0.456920000000     0.627560000000     0.276340000000     0.374883   
C37      C      0.462840000000     0.889260000000     0.964150000000     0.356697   
C38      C      0.703870000000     0.137870000000     0.958060000000     0.377066   
C39      C      0.651840000000     0.993900000000     0.159610000000     0.378412   
C40      C      0.608620000000     0.977300000000     0.962010000000     0.356898   
C41      C      0.470590000000     0.815770000000     0.129560000000     0.375456   
C42      C      0.273420000000     0.919460000000     0.020610000000     0.379689   
C43      C      0.486120000000     0.036300000000     0.121360000000     0.358286   
C44      C      0.486690000000     0.025130000000     0.851530000000     0.357954   
C45      C      0.367490000000     0.084220000000     0.013670000000     0.358478   
C46      C      0.512330000000     0.173100000000     0.008200000000     0.355939   
C47      C      0.318280000000     0.069460000000     0.819630000000     0.368807   
C48      C      0.506720000000     0.245340000000     0.846560000000     0.374452   
C49      C      0.508460000000     0.713550000000     0.165490000000    -0.011323   
C50      C      0.412230000000     0.757720000000     0.200840000000    -0.0141751  
C51      C      0.483970000000     0.646430000000     0.173870000000    -0.0145386  
C52      C      0.392230000000     0.689490000000     0.211760000000    -0.0108762  
C53      C      0.585300000000     0.387020000000     0.791670000000    -0.0108728  
C54      C      0.487600000000     0.417920000000     0.823230000000    -0.0153351  
C55      C      0.568180000000     0.316820000000     0.788650000000    -0.0141798  
C56      C      0.466210000000     0.349150000000     0.817740000000    -0.0110863  
C57      C      0.794950000000     0.167850000000     0.006440000000    -0.0135469  
C58      C      0.787250000000     0.175860000000     0.899100000000    -0.0105314  
C59      C      0.801460000000     0.239760000000     0.012660000000    -0.0121304  
C60      C      0.800530000000     0.247330000000     0.901340000000    -0.015442   
C61      C      0.128490000000     0.861770000000     0.972930000000    -0.0103805  
C62      C      0.132690000000     0.862780000000     0.080610000000    -0.0136337  
C63      C      0.193300000000     0.871360000000     0.968210000000    -0.0143138  
C64      C      0.198320000000     0.868970000000     0.080140000000    -0.0116428  
C65      C      0.212210000000     0.548290000000     0.763380000000    -0.0123212  
C66      C      0.209490000000     0.667970000000     0.765920000000    -0.0145444  
C67      C      0.276160000000     0.550610000000     0.748460000000    -0.012211   
C68      C      0.270290000000     0.669560000000     0.738540000000    -0.0144993  
C69      C      0.681780000000     0.492360000000     0.230050000000    -0.0124269  
C70      C      0.758080000000     0.490000000000     0.308470000000    -0.0126079  
C71      C      0.720290000000     0.451440000000     0.191010000000    -0.0115723  
C72      C      0.797510000000     0.452760000000     0.267420000000    -0.0123988  
C73      C      0.665970000000     0.240620000000     0.477040000000    -0.0111741  
C74      C      0.690190000000     0.255950000000     0.584510000000    -0.0149242  
C75      C      0.668550000000     0.168590000000     0.486570000000    -0.0148205  
C76      C      0.698280000000     0.183930000000     0.589840000000    -0.0102406  
C77      C      0.274960000000     0.890060000000     0.523260000000    -0.0155199  
C78      C      0.266610000000     0.872040000000     0.413700000000    -0.0118806  
C79      C      0.336440000000     0.863830000000     0.520990000000    -0.0119461  
C80      C      0.330370000000     0.855060000000     0.412710000000    -0.0131163  
C81      C      0.296700000000     0.092570000000     0.716810000000    -0.0141832  
C82      C      0.218100000000     0.060350000000     0.787300000000    -0.0130558  
C83      C      0.251960000000     0.131060000000     0.682010000000    -0.0115127  
C84      C      0.177260000000     0.107540000000     0.758200000000    -0.0104223  
C85      C      0.695420000000     0.041540000000     0.247250000000    -0.0105043  
C86      C      0.708040000000     0.925030000000     0.226270000000    -0.0115392  
C87      C      0.759190000000     0.047280000000     0.261570000000    -0.0132018  
C88      C      0.772800000000     0.930810000000     0.239220000000    -0.0133442  
C89      C      0.981400000000     0.654740000000     0.321490000000    -0.014696   
C90      C      0.081460000000     0.679640000000     0.290930000000    -0.00962865 
C91      C      0.966300000000     0.725700000000     0.324080000000    -0.0114278  
C92      C      0.070340000000     0.750890000000     0.297870000000    -0.0153503  
C93      C      0.013900000000     0.358300000000     0.640690000000    -0.0110464  
C94      C      0.907030000000     0.359280000000     0.648230000000    -0.0127289  
C95      C      0.019420000000     0.381940000000     0.703550000000    -0.0155888  
C96      C      0.910150000000     0.374940000000     0.713110000000    -0.0121904  
H1       H      0.040150000000     0.918550000000     0.593140000000    -0.0613009  
H2       H      0.892330000000     0.898590000000     0.520310000000    -0.0587952  
H3       H      0.929150000000     0.162350000000     0.381910000000    -0.0614164  
H4       H      0.911040000000     0.032150000000     0.635880000000    -0.0609824  
H5       H      0.078430000000     0.184750000000     0.458940000000    -0.0615723  
H6       H      0.056370000000     0.049790000000     0.341300000000    -0.060891   
H7       H      0.093860000000     0.420500000000     0.945050000000    -0.0585833  
H8       H      0.008590000000     0.390990000000     0.092090000000    -0.0637461  
H9       H      0.882800000000     0.662770000000     0.057330000000    -0.0638258  
H10      H      0.130010000000     0.530720000000     0.067950000000    -0.0598017  
H11      H      0.952350000000     0.679040000000     0.904280000000    -0.0567554  
H12      H      0.842550000000     0.551360000000     0.916560000000    -0.0604123  
H13      H      0.389690000000     0.421890000000     0.561770000000    -0.0592848  
H14      H      0.469670000000     0.397610000000     0.410080000000    -0.0636526  
H15      H      0.590140000000     0.670750000000     0.443120000000    -0.0623769  
H16      H      0.347120000000     0.529440000000     0.436060000000    -0.0597058  
H17      H      0.523090000000     0.687520000000     0.594700000000    -0.0576507  
H18      H      0.638240000000     0.560010000000     0.578820000000    -0.0610021  
H19      H      0.447440000000     0.049990000000     0.144400000000    -0.0645705  
H20      H      0.360530000000     0.134360000000     0.021380000000    -0.061498   
H21      H      0.523590000000     0.009880000000     0.826380000000    -0.0632148  
H22      H      0.517430000000     0.191530000000     0.051960000000    -0.0636359  
H23      H      0.615710000000     0.927110000000     0.954680000000    -0.0631697  
H24      H      0.457200000000     0.871880000000     0.920100000000    -0.0633682  
H25      H      0.425390000000     0.779260000000     0.243130000000     0.0395031  
H26      H      0.535980000000     0.726220000000     0.203500000000     0.0408689  
H27      H      0.519710000000     0.612430000000     0.182200000000     0.0419258  
H28      H      0.374570000000     0.784940000000     0.184260000000     0.0406911  
H29      H      0.361410000000     0.688130000000     0.248910000000     0.0408578  
H30      H      0.368530000000     0.672220000000     0.172650000000     0.0375924  
H31      H      0.535840000000     0.713200000000     0.125610000000     0.0381614  
H32      H      0.462100000000     0.630950000000     0.133060000000     0.0390189  
H33      H      0.503730000000     0.426250000000     0.868320000000     0.0392702  
H34      H      0.602830000000     0.397390000000     0.835850000000     0.0376843  
H35      H      0.605160000000     0.288350000000     0.804990000000     0.0410699  
H36      H      0.451310000000     0.451500000000     0.815890000000     0.0424216  
H37      H      0.434210000000     0.340900000000     0.853090000000     0.0385127  
H38      H      0.444250000000     0.342600000000     0.775020000000     0.0387622  
H39      H      0.620360000000     0.397240000000     0.759920000000     0.0412435  
H40      H      0.560910000000     0.303470000000     0.742260000000     0.0399599  
H41      H      0.828220000000     0.149310000000     0.892890000000     0.036428   
H42      H      0.838210000000     0.145710000000     0.001670000000     0.039317   
H43      H      0.830870000000     0.249030000000     0.050080000000     0.0406444  
H44      H      0.759810000000     0.165160000000     0.860560000000     0.0392185  
H45      H      0.830600000000     0.258340000000     0.864930000000     0.0417075  
H46      H      0.759970000000     0.274090000000     0.893420000000     0.0399714  
H47      H      0.775480000000     0.147920000000     0.046820000000     0.0419457  
H48      H      0.758890000000     0.261490000000     0.022530000000     0.0410385  
H49      H      0.112880000000     0.910960000000     0.081170000000     0.0375952  
H50      H      0.106860000000     0.908990000000     0.972770000000     0.0368287  
H51      H      0.200760000000     0.905740000000     0.932060000000     0.0418664  
H52      H      0.118830000000     0.837970000000     0.121110000000     0.0406375  
H53      H      0.210940000000     0.901280000000     0.116450000000     0.0381363  
H54      H      0.217860000000     0.821470000000     0.088280000000     0.0418481  
H55      H      0.112280000000     0.835430000000     0.934150000000     0.0414709  
H56      H      0.213560000000     0.825360000000     0.955800000000     0.040476   
H57      H      0.177340000000     0.676990000000     0.730890000000     0.0356714  
H58      H      0.186290000000     0.543130000000     0.722800000000     0.0428488  
H59      H      0.286910000000     0.506770000000     0.723440000000     0.040144   
H60      H      0.206160000000     0.707760000000     0.797790000000     0.0394679  
H61      H      0.271010000000     0.707310000000     0.704500000000     0.0399399  
H62      H      0.301700000000     0.683510000000     0.772880000000     0.0355979  
H63      H      0.204670000000     0.505740000000     0.791320000000     0.0401882  
H64      H      0.302290000000     0.551110000000     0.789160000000     0.0421788  
H65      H      0.769910000000     0.541220000000     0.306740000000     0.0395793  
H66      H      0.686960000000     0.543380000000     0.218340000000     0.0415887  
H67      H      0.710910000000     0.464100000000     0.144820000000     0.0388981  
H68      H      0.766340000000     0.473000000000     0.353680000000     0.0399492  
H69      H      0.842690000000     0.467420000000     0.276160000000     0.0399752  
H70      H      0.794230000000     0.401200000000     0.277790000000     0.036887   
H71      H      0.636360000000     0.478410000000     0.221360000000     0.0386579  
H72      H      0.709790000000     0.400280000000     0.197300000000     0.0387011  
H73      H      0.733220000000     0.278740000000     0.580470000000     0.0399637  
H74      H      0.707320000000     0.257640000000     0.458160000000     0.0398915  
H75      H      0.679660000000     0.144610000000     0.444760000000     0.0410885  
H76      H      0.670150000000     0.273430000000     0.625630000000     0.040369   
H77      H      0.732680000000     0.173200000000     0.622180000000     0.0396379  
H78      H      0.657810000000     0.162650000000     0.606940000000     0.036551   
H79      H      0.630860000000     0.250760000000     0.445280000000     0.0388382  
H80      H      0.625540000000     0.150890000000     0.500450000000     0.0399134  
H81      H      0.240400000000     0.827730000000     0.414320000000     0.0411247  
H82      H      0.246130000000     0.852170000000     0.540440000000     0.0352503  
H83      H      0.345120000000     0.836680000000     0.561720000000     0.042259   
H84      H      0.256370000000     0.898870000000     0.373100000000     0.0381574  
H85      H      0.338290000000     0.823330000000     0.374700000000     0.040899   
H86      H      0.356650000000     0.898800000000     0.406630000000     0.0390753  
H87      H      0.274390000000     0.930120000000     0.555020000000     0.0427855  
H88      H      0.367270000000     0.904280000000     0.519960000000     0.0376754  
H89      H      0.211140000000     0.011850000000     0.769210000000     0.0423589  
H90      H      0.303690000000     0.046250000000     0.694460000000     0.0391839  
H91      H      0.261170000000     0.125370000000     0.634630000000     0.0381899  
H92      H      0.207840000000     0.059370000000     0.834780000000     0.0389807  
H93      H      0.132390000000     0.090160000000     0.764320000000     0.0372114  
H94      H      0.181100000000     0.155040000000     0.779200000000     0.0391762  
H95      H      0.338250000000     0.118900000000     0.715970000000     0.0412006  
H96      H      0.257340000000     0.182350000000     0.692540000000     0.0364543  
H97      H      0.684920000000     0.908870000000     0.266120000000     0.039925   
H98      H      0.670880000000     0.033920000000     0.288350000000     0.0390985  
H99      H      0.764360000000     0.083610000000     0.296480000000     0.0424974  
H100     H      0.701990000000     0.888450000000     0.191700000000     0.0371742  
H101     H      0.787600000000     0.885430000000     0.259220000000     0.0394862  
H102     H      0.796880000000     0.938120000000     0.197800000000     0.0397122  
H103     H      0.680370000000     0.087260000000     0.228160000000     0.0383904  
H104     H      0.782560000000     0.064930000000     0.222420000000     0.0398401  
H105     H      0.099750000000     0.660870000000     0.332370000000     0.0369843  
H106     H      0.996610000000     0.638580000000     0.365090000000     0.0395562  
H107     H      0.934850000000     0.733000000000     0.360130000000     0.0395843  
H108     H      0.114180000000     0.671310000000     0.256270000000     0.0395138  
H109     H      0.109640000000     0.772810000000     0.317010000000     0.0415741  
H110     H      0.063730000000     0.772190000000     0.253930000000     0.0405938  
H111     H      0.942210000000     0.626760000000     0.310500000000     0.0411293  
H112     H      0.945790000000     0.740640000000     0.282400000000     0.0399883  
H113     H      0.904360000000     0.403920000000     0.622300000000     0.0385814  
H114     H      0.014890000000     0.399860000000     0.610650000000     0.0371555  
H115     H      0.053960000000     0.418600000000     0.704630000000     0.0424748  
H116     H      0.867160000000     0.331390000000     0.639940000000     0.0404456  
H117     H      0.872790000000     0.405850000000     0.724200000000     0.039643   
H118     H      0.906900000000     0.330330000000     0.739050000000     0.041222   
H119     H      0.051780000000     0.328190000000     0.629760000000     0.0415686  
H120     H      0.033460000000     0.341500000000     0.731460000000     0.0364397  
Mg1      Mg     0.841430000000     0.020960000000     0.463930000000     0.790954   
Mg2      Mg     0.951810000000     0.961670000000     0.362640000000     0.781509   
Mg3      Mg     0.015180000000     0.116840000000     0.616830000000     0.785044   
Mg4      Mg     0.067660000000     0.911510000000     0.463880000000     0.78335    
Mg5      Mg     0.903060000000     0.172350000000     0.513660000000     0.790288   
Mg6      Mg     0.129530000000     0.065430000000     0.512530000000     0.788641   
Mg7      Mg     0.961870000000     0.511950000000     0.142710000000     0.79116    
Mg8      Mg     0.857590000000     0.466450000000     0.025370000000     0.78987    
Mg9      Mg     0.109580000000     0.622540000000     0.965970000000     0.777288   
Mg10     Mg     0.960600000000     0.409980000000     0.914010000000     0.786078   
Mg11     Mg     0.006960000000     0.669140000000     0.083220000000     0.786818   
Mg12     Mg     0.015540000000     0.558840000000     0.852840000000     0.784287   
Mg13     Mg     0.514030000000     0.517670000000     0.357410000000     0.791835   
Mg14     Mg     0.621470000000     0.474780000000     0.472600000000     0.789579   
Mg15     Mg     0.367090000000     0.622840000000     0.537590000000     0.775317   
Mg16     Mg     0.522680000000     0.414730000000     0.587240000000     0.786267   
Mg17     Mg     0.465370000000     0.672690000000     0.417240000000     0.788278   
Mg18     Mg     0.468250000000     0.565420000000     0.649310000000     0.785022   
Mg19     Mg     0.416500000000     0.141920000000     0.904430000000     0.78412    
Mg20     Mg     0.368370000000     0.972260000000     0.919640000000     0.79258    
Mg21     Mg     0.603510000000     0.091520000000     0.057270000000     0.793928   
Mg22     Mg     0.399630000000     0.946760000000     0.079770000000     0.787784   
Mg23     Mg     0.577520000000     0.113880000000     0.895550000000     0.787527   
Mg24     Mg     0.560370000000     0.917310000000     0.067480000000     0.785632   
N1       N      0.442200000000     0.648380000000     0.221870000000    -0.162568   
N2       N      0.461570000000     0.760660000000     0.159900000000    -0.162084   
N3       N      0.514880000000     0.303990000000     0.822120000000    -0.162358   
N4       N      0.534560000000     0.427010000000     0.781310000000    -0.162752   
N5       N      0.824660000000     0.267480000000     0.958330000000    -0.162067   
N6       N      0.760490000000     0.155350000000     0.954010000000    -0.162221   
N7       N      0.219430000000     0.893850000000     0.023640000000    -0.162854   
N8       N      0.115220000000     0.828960000000     0.027570000000    -0.163204   
N9       N      0.288380000000     0.607890000000     0.713990000000    -0.160825   
N10      N      0.195460000000     0.606800000000     0.793990000000    -0.160899   
N11      N      0.780970000000     0.462480000000     0.206010000000    -0.162945   
N12      N      0.697010000000     0.483250000000     0.291940000000    -0.162754   
N13      N      0.710890000000     0.155940000000     0.532550000000    -0.162932   
N14      N      0.655250000000     0.273240000000     0.532990000000    -0.162565   
N15      N      0.345120000000     0.824940000000     0.468540000000    -0.162843   
N16      N      0.253170000000     0.910600000000     0.465550000000    -0.163076   
N17      N      0.192470000000     0.112360000000     0.696300000000    -0.163282   
N18      N      0.278130000000     0.079920000000     0.777210000000    -0.161361   
N19      N      0.783150000000     0.985050000000     0.278430000000    -0.162472   
N20      N      0.685360000000     0.987270000000     0.208060000000    -0.163071   
N21      N      0.018830000000     0.763610000000     0.333950000000    -0.162653   
N22      N      0.027440000000     0.646240000000     0.278390000000    -0.162829   
N23      N      0.964730000000     0.407390000000     0.726960000000    -0.163384   
N24      N      0.959340000000     0.324330000000     0.632500000000    -0.163319   
O1       O      0.914320000000     0.953590000000     0.451150000000    -0.412499   
O2       O      0.072970000000     0.982850000000     0.536380000000    -0.409779   
O3       O      0.975440000000     0.887650000000     0.495610000000    -0.334235   
O4       O      0.935880000000     0.070110000000     0.357430000000    -0.335707   
O5       O      0.911830000000     0.245970000000     0.584570000000    -0.344869   
O6       O      0.969350000000     0.852580000000     0.361160000000    -0.332976   
O7       O      0.864330000000     0.022640000000     0.561840000000    -0.336226   
O8       O      0.036310000000     0.985230000000     0.403700000000    -0.413929   
O9       O      0.164370000000     0.083140000000     0.605010000000    -0.340613   
O10      O      0.999790000000     0.226300000000     0.619200000000    -0.33511    
O11      O      0.029970000000     0.009370000000     0.619720000000    -0.338507   
O12      O      0.161750000000     0.929340000000     0.434240000000    -0.333898   
O13      O      0.863960000000     0.943230000000     0.320330000000    -0.338738   
O14      O      0.808450000000     0.156680000000     0.543490000000    -0.335198   
O15      O      0.931670000000     0.097050000000     0.573900000000    -0.415693   
O16      O      0.055950000000     0.129990000000     0.528010000000    -0.409921   
O17      O      0.995010000000     0.195040000000     0.482330000000    -0.336474   
O18      O      0.200540000000     0.993170000000     0.500760000000    -0.340662   
O19      O      0.899120000000     0.100710000000     0.442750000000    -0.416133   
O20      O      0.103400000000     0.059650000000     0.415160000000    -0.335815   
O21      O      0.768450000000     0.090730000000     0.479240000000    -0.341974   
O22      O      0.060060000000     0.839570000000     0.390540000000    -0.341512   
O23      O      0.814060000000     0.017400000000     0.367600000000    -0.33796    
O24      O      0.100360000000     0.127450000000     0.664860000000    -0.341636   
O25      O      0.944440000000     0.450180000000     0.066920000000    -0.411865   
O26      O      0.032920000000     0.481050000000     0.914490000000    -0.41039    
O27      O      0.987820000000     0.382300000000     0.006800000000    -0.338301   
O28      O      0.856420000000     0.572800000000     0.043200000000    -0.341504   
O29      O      0.074280000000     0.745920000000     0.075250000000    -0.344622   
O30      O      0.849660000000     0.358620000000     0.006080000000    -0.33689    
O31      O      0.057030000000     0.517970000000     0.114570000000    -0.337496   
O32      O      0.902310000000     0.486770000000     0.941990000000    -0.41407    
O33      O      0.112580000000     0.562630000000     0.828560000000    -0.332542   
O34      O      0.105660000000     0.731460000000     0.984320000000    -0.333424   
O35      O      0.117340000000     0.513380000000     0.949900000000    -0.331388   
O36      O      0.934080000000     0.430500000000     0.818780000000    -0.335719   
O37      O      0.810880000000     0.453380000000     0.111520000000    -0.341555   
O38      O      0.035680000000     0.653030000000     0.179420000000    -0.334142   
O39      O      0.069250000000     0.597460000000     0.051530000000    -0.412281   
O40      O      0.023130000000     0.628020000000     0.926370000000    -0.412197   
O41      O      0.975560000000     0.690360000000     0.988860000000    -0.332757   
O42      O      0.007180000000     0.484580000000     0.781700000000    -0.341893   
O43      O      0.937950000000     0.596760000000     0.089020000000    -0.415515   
O44      O      0.917370000000     0.557750000000     0.871370000000    -0.331737   
O45      O      0.979660000000     0.578070000000     0.218810000000    -0.340877   
O46      O      0.886800000000     0.339030000000     0.918150000000    -0.340251   
O47      O      0.870380000000     0.494910000000     0.177650000000    -0.34086    
O48      O      0.151380000000     0.643760000000     0.876620000000    -0.335349   
O49      O      0.534400000000     0.457070000000     0.432990000000    -0.413411   
O50      O      0.449570000000     0.484400000000     0.590970000000    -0.40997    
O51      O      0.493010000000     0.389250000000     0.494680000000    -0.338744   
O52      O      0.619190000000     0.581570000000     0.456210000000    -0.340132   
O53      O      0.394820000000     0.744940000000     0.425630000000    -0.345851   
O54      O      0.630340000000     0.366440000000     0.489120000000    -0.336388   
O55      O      0.419180000000     0.519580000000     0.387370000000    -0.337199   
O56      O      0.579290000000     0.492730000000     0.557890000000    -0.414784   
O57      O      0.372450000000     0.567340000000     0.678510000000    -0.332776   
O58      O      0.364400000000     0.732050000000     0.517140000000    -0.331863   
O59      O      0.364240000000     0.513900000000     0.555460000000    -0.332278   
O60      O      0.550030000000     0.431410000000     0.683140000000    -0.336472   
O61      O      0.667120000000     0.465390000000     0.385410000000    -0.341675   
O62      O      0.436420000000     0.655880000000     0.321210000000    -0.334831   
O63      O      0.406090000000     0.598560000000     0.450760000000    -0.410661   
O64      O      0.454480000000     0.632180000000     0.574590000000    -0.411874   
O65      O      0.497460000000     0.696630000000     0.510650000000    -0.333843   
O66      O      0.485110000000     0.495850000000     0.723180000000    -0.341233   
O67      O      0.536730000000     0.603330000000     0.410790000000    -0.414864   
O68      O      0.564910000000     0.566580000000     0.626120000000    -0.33504    
O69      O      0.492400000000     0.581650000000     0.281110000000    -0.342409   
O70      O      0.597410000000     0.344950000000     0.578570000000    -0.339267   
O71      O      0.605580000000     0.506700000000     0.321220000000    -0.341615   
O72      O      0.327400000000     0.643000000000     0.628160000000    -0.334546   
O73      O      0.381350000000     0.066180000000     0.962760000000    -0.412684   
O74      O      0.487310000000     0.982670000000     0.096100000000    -0.411092   
O75      O      0.369120000000     0.047420000000     0.057520000000    -0.339654   
O76      O      0.445730000000     0.985970000000     0.858710000000    -0.340851   
O77      O      0.670230000000     0.146040000000     0.914410000000    -0.33679    
O78      O      0.289520000000     0.944750000000     0.972670000000    -0.344428   
O79      O      0.464500000000     0.182180000000     0.982860000000    -0.3385     
O80      O      0.424760000000     0.925640000000     0.985500000000    -0.408671   
O81      O      0.619910000000     0.947500000000     0.143420000000    -0.338547   
O82      O      0.685540000000     0.115540000000     0.006540000000    -0.341909   
O83      O      0.524170000000     0.078440000000     0.113300000000    -0.342958   
O84      O      0.426960000000     0.848940000000     0.114320000000    -0.340363   
O85      O      0.310760000000     0.022960000000     0.854630000000    -0.339837   
O86      O      0.550720000000     0.213210000000     0.862830000000    -0.339038   
O87      O      0.550570000000     0.135870000000     0.988260000000    -0.41091    
O88      O      0.594650000000     0.995610000000     0.012850000000    -0.409518   
O89      O      0.606820000000     0.013520000000     0.917830000000    -0.34024    
O90      O      0.522140000000     0.834390000000     0.119600000000    -0.33641    
O91      O      0.489440000000     0.077380000000     0.878950000000    -0.411555   
O92      O      0.510830000000     0.879530000000     0.988890000000    -0.339981   
O93      O      0.455420000000     0.224120000000     0.852750000000    -0.337649   
O94      O      0.308150000000     0.912330000000     0.063350000000    -0.340699   
O95      O      0.360920000000     0.107830000000     0.824750000000    -0.330994   
O96      O      0.653290000000     0.046570000000     0.131840000000    -0.340662   


