data_structure

_audit_creation_method RASPA-1.0
_audit_creation_date 2023-5-9
_audit_author_name 'Poobodin Mano'

_cell_length_a    29.7997
_cell_length_b    29.7934
_cell_length_c    29.7279
_cell_angle_alpha 89.9988
_cell_angle_beta  90.0003
_cell_angle_gamma 89.9991
_cell_volume      26393.5

_symmetry_cell_setting          triclinic
_symmetry_space_group_name_Hall 'P 1'
_symmetry_space_group_name_H-M  'P 1'
_symmetry_Int_Tables_number     1

_symmetry_equiv_pos_as_xyz 'x,y,z'

loop_
_atom_site_label
_atom_site_type_symbol
_atom_site_fract_x
_atom_site_fract_y
_atom_site_fract_z
_atom_site_charge
C1       C      0.000320000000     0.082890000000     0.481490000000     0.355461   
C2       C      0.978030000000     0.872720000000     0.329120000000     0.328962   
C3       C      0.830120000000     0.986240000000     0.372770000000     0.327785   
C4       C      0.984830000000     0.000590000000     0.381010000000     0.355698   
C5       C      0.871130000000     0.131840000000     0.490350000000     0.327209   
C6       C      0.987610000000     0.088380000000     0.636470000000     0.330974   
C7       C      0.880380000000     0.977230000000     0.501550000000     0.356084   
C8       C      0.084570000000     0.983790000000     0.463820000000     0.357017   
C9       C      0.980540000000     0.960710000000     0.584750000000     0.356214   
C10      C      0.964420000000     0.878740000000     0.484320000000     0.355761   
C11      C      0.135190000000     0.975190000000     0.592540000000     0.327496   
C12      C      0.093150000000     0.829090000000     0.476080000000     0.32836    
C13      C      0.969190000000     0.585780000000     0.967280000000     0.359845   
C14      C      0.839840000000     0.362500000000     0.961920000000     0.335795   
C15      C      0.853980000000     0.469860000000     0.117960000000     0.337638   
C16      C      0.878190000000     0.494480000000     0.966600000000     0.355873   
C17      C      0.957130000000     0.630450000000     0.095210000000     0.328279   
C18      C      0.118570000000     0.603500000000     0.999820000000     0.337917   
C19      C      0.986010000000     0.477080000000     0.084850000000     0.359554   
C20      C      0.972510000000     0.489080000000     0.876820000000     0.360657   
C21      C      0.080100000000     0.471800000000     0.995680000000     0.354611   
C22      C      0.989100000000     0.380370000000     0.994560000000     0.359176   
C23      C      0.105070000000     0.496200000000     0.844390000000     0.335212   
C24      C      0.000590000000     0.336290000000     0.865810000000     0.3305     
C25      C      0.487640000000     0.585170000000     0.491270000000     0.361788   
C26      C      0.627630000000     0.365170000000     0.510450000000     0.326486   
C27      C      0.607620000000     0.463060000000     0.349290000000     0.339679   
C28      C      0.584080000000     0.493700000000     0.498400000000     0.358184   
C29      C      0.500800000000     0.618590000000     0.358850000000     0.333452   
C30      C      0.335940000000     0.595760000000     0.456150000000     0.327832   
C31      C      0.474530000000     0.467370000000     0.382190000000     0.354925   
C32      C      0.489460000000     0.494750000000     0.585030000000     0.354011   
C33      C      0.380040000000     0.467690000000     0.469110000000     0.358261   
C34      C      0.475690000000     0.376760000000     0.476430000000     0.359647   
C35      C      0.356000000000     0.499850000000     0.618180000000     0.337059   
C36      C      0.463000000000     0.343530000000     0.609040000000     0.333502   
C37      C      0.500850000000     0.880090000000     0.972910000000     0.354114   
C38      C      0.613040000000     0.112430000000     0.969280000000     0.334607   
C39      C      0.594810000000     0.008320000000     0.131160000000     0.327158   
C40      C      0.585930000000     0.978500000000     0.977560000000     0.359604   
C41      C      0.505750000000     0.843360000000     0.106140000000     0.334463   
C42      C      0.350750000000     0.849020000000     0.996300000000     0.336703   
C43      C      0.467490000000     0.991010000000     0.085930000000     0.357798   
C44      C      0.496710000000     0.970570000000     0.880500000000     0.359912   
C45      C      0.377800000000     0.982580000000     0.988480000000     0.360102   
C46      C      0.463010000000     0.080780000000     0.993910000000     0.354205   
C47      C      0.369700000000     0.952750000000     0.834940000000     0.327324   
C48      C      0.457320000000     0.118110000000     0.860970000000     0.335459   
C49      C      0.546330000000     0.774040000000     0.204780000000    -0.0651274  
C50      C      0.509480000000     0.745620000000     0.212300000000     0.0214836  
C51      C      0.473320000000     0.746640000000     0.181950000000    -0.0646302  
C52      C      0.473100000000     0.776810000000     0.146010000000     0.0187944  
C53      C      0.509070000000     0.806690000000     0.139630000000    -0.101158   
C54      C      0.546160000000     0.804220000000     0.168830000000     0.0196737  
C55      C      0.508270000000     0.715550000000     0.252070000000     0.0215724  
C56      C      0.546640000000     0.691540000000     0.265220000000    -0.0649745  
C57      C      0.544760000000     0.661580000000     0.301300000000     0.0199953  
C58      C      0.504430000000     0.654920000000     0.325020000000    -0.100608   
C59      C      0.466540000000     0.680330000000     0.312950000000     0.0188433  
C60      C      0.468450000000     0.710290000000     0.276880000000    -0.0647633  
C61      C      0.489920000000     0.215170000000     0.785760000000    -0.0650835  
C62      C      0.453900000000     0.216240000000     0.755260000000     0.0215898  
C63      C      0.417030000000     0.187780000000     0.762510000000    -0.065385   
C64      C      0.417070000000     0.157490000000     0.798350000000     0.0199993  
C65      C      0.454040000000     0.154950000000     0.827690000000    -0.101934   
C66      C      0.490000000000     0.184900000000     0.821590000000     0.0191737  
C67      C      0.455270000000     0.246410000000     0.715600000000     0.0214976  
C68      C      0.416970000000     0.270540000000     0.702480000000    -0.0652257  
C69      C      0.418970000000     0.300570000000     0.666490000000     0.0199982  
C70      C      0.459340000000     0.307180000000     0.642830000000    -0.100884   
C71      C      0.497170000000     0.281680000000     0.654870000000     0.0188638  
C72      C      0.495150000000     0.251650000000     0.690880000000    -0.0648606  
C73      C      0.704530000000     0.194390000000     0.002070000000    -0.0649476  
C74      C      0.709080000000     0.219790000000     0.962460000000     0.0217829  
C75      C      0.683940000000     0.207710000000     0.924410000000    -0.065457   
C76      C      0.654050000000     0.171760000000     0.926220000000     0.0204633  
C77      C      0.648460000000     0.147100000000     0.966210000000    -0.101669   
C78      C      0.674520000000     0.158420000000     0.003940000000     0.019357   
C79      C      0.739960000000     0.258750000000     0.960830000000     0.0216964  
C80      C      0.743050000000     0.288420000000     0.997440000000    -0.064869   
C81      C      0.773960000000     0.323620000000     0.996930000000     0.0193877  
C82      C      0.802470000000     0.329880000000     0.959770000000    -0.101959   
C83      C      0.797950000000     0.301350000000     0.922340000000     0.0205424  
C84      C      0.767120000000     0.266130000000     0.922920000000    -0.0652676  
C85      C      0.280710000000     0.749960000000     0.961470000000    -0.065814   
C86      C      0.253890000000     0.742520000000     0.999730000000     0.0224659  
C87      C      0.258780000000     0.771480000000     0.036910000000    -0.0653843  
C88      C      0.290010000000     0.806530000000     0.035890000000     0.0229249  
C89      C      0.315920000000     0.814070000000     0.997240000000    -0.103763   
C90      C      0.310760000000     0.785690000000     0.959990000000     0.0231561  
C91      C      0.220580000000     0.705220000000     0.000190000000     0.0224168  
C92      C      0.199250000000     0.692080000000     0.960060000000    -0.0658959  
C93      C      0.167850000000     0.657530000000     0.959960000000     0.0227618  
C94      C      0.155800000000     0.636020000000     0.000160000000    -0.104153   
C95      C      0.176780000000     0.648840000000     0.040410000000     0.0226592  
C96      C      0.209340000000     0.682700000000     0.040350000000    -0.065451   
C97      C      0.185380000000     0.462080000000     0.751890000000    -0.0648719  
C98      C      0.210800000000     0.501460000000     0.746470000000     0.0217048  
C99      C      0.198840000000     0.539960000000     0.770910000000    -0.0653388  
C100     C      0.163160000000     0.538730000000     0.801210000000     0.0208055  
C101     C      0.138720000000     0.498890000000     0.807920000000    -0.101724   
C102     C      0.149690000000     0.460790000000     0.782300000000     0.0194055  
C103     C      0.249930000000     0.502290000000     0.715770000000     0.0219265  
C104     C      0.279630000000     0.465700000000     0.713870000000    -0.0653187  
C105     C      0.315410000000     0.465680000000     0.683570000000     0.0198423  
C106     C      0.322230000000     0.502310000000     0.654540000000    -0.103075   
C107     C      0.293480000000     0.539620000000     0.657700000000     0.0207247  
C108     C      0.257690000000     0.539560000000     0.687910000000    -0.0657377  
C109     C      0.758330000000     0.504720000000     0.192500000000    -0.0659154  
C110     C      0.749970000000     0.465430000000     0.217440000000     0.0224728  
C111     C      0.777740000000     0.427800000000     0.210400000000    -0.0656038  
C112     C      0.812280000000     0.429280000000     0.178610000000     0.0232801  
C113     C      0.820470000000     0.468750000000     0.154220000000    -0.104386   
C114     C      0.793550000000     0.506560000000     0.161850000000     0.023286   
C115     C      0.712590000000     0.464200000000     0.250610000000     0.022762   
C116     C      0.700550000000     0.503380000000     0.274070000000    -0.0664435  
C117     C      0.665190000000     0.503020000000     0.304570000000     0.0238092  
C118     C      0.641780000000     0.463190000000     0.313580000000    -0.105335   
C119     C      0.653820000000     0.423740000000     0.290860000000     0.0233714  
C120     C      0.688520000000     0.424360000000     0.259140000000    -0.0658192  
C121     C      0.713230000000     0.276920000000     0.545420000000    -0.0630798  
C122     C      0.743360000000     0.277930000000     0.508920000000     0.020432   
C123     C      0.737330000000     0.310790000000     0.475550000000    -0.063188   
C124     C      0.700910000000     0.340280000000     0.477300000000     0.0165257  
C125     C      0.669430000000     0.337870000000     0.512540000000    -0.0960359  
C126     C      0.676680000000     0.306580000000     0.547240000000     0.0164341  
C127     C      0.779040000000     0.243120000000     0.503910000000     0.0209191  
C128     C      0.803780000000     0.227880000000     0.541190000000    -0.0634513  
C129     C      0.835120000000     0.193080000000     0.536510000000     0.0165257  
C130     C      0.842220000000     0.172420000000     0.494480000000    -0.0963306  
C131     C      0.818380000000     0.188630000000     0.457010000000     0.0177985  
C132     C      0.787280000000     0.223470000000     0.461660000000    -0.0636911  
C133     C      0.176350000000     0.737000000000     0.504840000000    -0.0639025  
C134     C      0.184310000000     0.717190000000     0.462610000000     0.0209707  
C135     C      0.159490000000     0.732400000000     0.425380000000    -0.0637906  
C136     C      0.128410000000     0.767390000000     0.430060000000     0.016982   
C137     C      0.121660000000     0.788260000000     0.472040000000    -0.0971605  
C138     C      0.145510000000     0.772040000000     0.509490000000     0.0181768  
C139     C      0.219910000000     0.682370000000     0.457530000000     0.0206405  
C140     C      0.250010000000     0.683480000000     0.421010000000    -0.0634009  
C141     C      0.286640000000     0.653950000000     0.419220000000     0.0169841  
C142     C      0.293990000000     0.622750000000     0.453950000000    -0.097057   
C143     C      0.262490000000     0.620180000000     0.489160000000     0.0170551  
C144     C      0.225990000000     0.649540000000     0.490900000000    -0.063764   
C145     C      0.226800000000     0.003200000000     0.676860000000    -0.063491   
C146     C      0.247390000000     0.961220000000     0.683640000000     0.0208883  
C147     C      0.232800000000     0.924540000000     0.657720000000    -0.0635003  
C148     C      0.197720000000     0.929480000000     0.626700000000     0.0165636  
C149     C      0.176100000000     0.971170000000     0.621070000000    -0.0963221  
C150     C      0.191650000000     0.008110000000     0.646060000000     0.0177662  
C151     C      0.282510000000     0.955750000000     0.719040000000     0.020591   
C152     C      0.314660000000     0.989520000000     0.726030000000    -0.0635391  
C153     C      0.344300000000     0.987220000000     0.762360000000     0.016874   
C154     C      0.342750000000     0.951030000000     0.792800000000    -0.0963946  
C155     C      0.312300000000     0.915940000000     0.784460000000     0.0166341  
C156     C      0.282460000000     0.918300000000     0.747990000000    -0.0630507  
C157     C      0.732230000000     0.036730000000     0.307910000000    -0.0636228  
C158     C      0.717670000000     0.000040000000     0.281980000000     0.0208238  
C159     C      0.738420000000     0.958110000000     0.288620000000    -0.0637388  
C160     C      0.773680000000     0.953280000000     0.319300000000     0.0178471  
C161     C      0.789180000000     0.990220000000     0.344310000000    -0.096727   
C162     C      0.767410000000     0.031860000000     0.338810000000     0.0166614  
C163     C      0.682440000000     0.005430000000     0.246710000000     0.0205323  
C164     C      0.650270000000     0.971650000000     0.239890000000    -0.063635   
C165     C      0.620500000000     0.973890000000     0.203670000000     0.0168676  
C166     C      0.621960000000     0.010020000000     0.173160000000    -0.0966343  
C167     C      0.652470000000     0.045120000000     0.181320000000     0.0166312  
C168     C      0.682410000000     0.042820000000     0.217690000000    -0.0632186  
C169     C      0.007170000000     0.789390000000     0.237130000000    -0.0640494  
C170     C      0.965380000000     0.782550000000     0.216180000000     0.0212168  
C171     C      0.928530000000     0.808370000000     0.230420000000    -0.0638862  
C172     C      0.933040000000     0.839200000000     0.265720000000     0.0171323  
C173     C      0.974480000000     0.844730000000     0.287830000000    -0.0975288  
C174     C      0.011660000000     0.820040000000     0.272450000000     0.0183321  
C175     C      0.960190000000     0.746900000000     0.181380000000     0.0205996  
C176     C      0.994210000000     0.739430000000     0.149520000000    -0.0634223  
C177     C      0.992090000000     0.702770000000     0.120320000000     0.0171618  
C178     C      0.955820000000     0.672540000000     0.122060000000    -0.0969966  
C179     C      0.920560000000     0.681300000000     0.152260000000     0.0171678  
C180     C      0.922750000000     0.718040000000     0.181640000000    -0.0632552  
C181     C      0.957950000000     0.156150000000     0.740070000000    -0.0641668  
C182     C      0.997630000000     0.181070000000     0.747180000000     0.021748   
C183     C      0.035190000000     0.171300000000     0.720120000000    -0.0642013  
C184     C      0.032530000000     0.139150000000     0.685930000000     0.0201541  
C185     C      0.991990000000     0.116720000000     0.677110000000    -0.0994157  
C186     C      0.954950000000     0.125000000000     0.704960000000     0.0207197  
C187     C      0.998700000000     0.219150000000     0.780140000000     0.0215444  
C188     C      0.959550000000     0.244150000000     0.788690000000    -0.0642422  
C189     C      0.960380000000     0.281130000000     0.817400000000     0.0201079  
C190     C      0.000580000000     0.295200000000     0.837680000000    -0.0989899  
C191     C      0.039900000000     0.270560000000     0.829480000000     0.019518   
C192     C      0.038870000000     0.232610000000     0.801480000000    -0.0637966  
H1       H      0.867490000000     0.971980000000     0.535130000000    -0.0608231  
H2       H      0.976190000000     0.926900000000     0.597210000000    -0.0609715  
H3       H      0.097310000000     0.988810000000     0.430150000000    -0.0611806  
H4       H      0.930920000000     0.865630000000     0.488990000000    -0.0605234  
H5       H      0.989420000000     0.034350000000     0.368500000000    -0.0604431  
H6       H      0.033770000000     0.096160000000     0.476830000000    -0.0609612  
H7       H      0.018230000000     0.474950000000     0.101430000000    -0.0622723  
H8       H      0.095410000000     0.439250000000     0.000500000000    -0.0599461  
H9       H      0.940340000000     0.491160000000     0.860150000000    -0.0630908  
H10      H      0.990360000000     0.365540000000     0.027730000000    -0.0623737  
H11      H      0.862960000000     0.527080000000     0.961930000000    -0.0607483  
H12      H      0.967940000000     0.600560000000     0.934090000000    -0.0627655  
H13      H      0.442570000000     0.462830000000     0.365590000000    -0.0600314  
H14      H      0.365130000000     0.434690000000     0.466850000000    -0.061747   
H15      H      0.521430000000     0.499530000000     0.601530000000    -0.0593198  
H16      H      0.474660000000     0.360250000000     0.444070000000    -0.0623136  
H17      H      0.599130000000     0.526640000000     0.500750000000    -0.062319   
H18      H      0.488220000000     0.601560000000     0.523700000000    -0.0632268  
H19      H      0.434370000000     0.991290000000     0.100760000000    -0.0617505  
H20      H      0.359790000000     0.014030000000     0.990180000000    -0.0626877  
H21      H      0.529900000000     0.970660000000     0.865840000000    -0.0624825  
H22      H      0.457270000000     0.095960000000     0.026430000000    -0.0595236  
H23      H      0.603910000000     0.947040000000     0.975580000000    -0.0619448  
H24      H      0.506610000000     0.864790000000     0.940450000000    -0.0601651  
H25      H      0.444880000000     0.724420000000     0.186260000000     0.0460867  
H26      H      0.444080000000     0.777580000000     0.124090000000     0.0362315  
H27      H      0.574430000000     0.826760000000     0.165030000000     0.034214   
H28      H      0.574640000000     0.774150000000     0.227630000000     0.0452983  
H29      H      0.577780000000     0.694750000000     0.246710000000     0.0456196  
H30      H      0.574620000000     0.642560000000     0.309570000000     0.0347145  
H31      H      0.434970000000     0.676260000000     0.330550000000     0.0350739  
H32      H      0.438580000000     0.729090000000     0.268180000000     0.0457263  
H33      H      0.388820000000     0.187730000000     0.739530000000     0.0453693  
H34      H      0.388810000000     0.134900000000     0.801940000000     0.0341489  
H35      H      0.518930000000     0.184080000000     0.843630000000     0.0351205  
H36      H      0.518370000000     0.237430000000     0.781630000000     0.0457223  
H37      H      0.385810000000     0.267340000000     0.720950000000     0.0454899  
H38      H      0.389140000000     0.319650000000     0.658230000000     0.0342955  
H39      H      0.528770000000     0.285740000000     0.637320000000     0.034902   
H40      H      0.524960000000     0.232760000000     0.699590000000     0.0456055  
H41      H      0.686450000000     0.226790000000     0.893490000000     0.0454602  
H42      H      0.634460000000     0.164140000000     0.896490000000     0.0342085  
H43      H      0.671170000000     0.140110000000     0.035240000000     0.0348539  
H44      H      0.724130000000     0.202350000000     0.031690000000     0.0458305  
H45      H      0.721860000000     0.284160000000     0.026740000000     0.046028   
H46      H      0.776360000000     0.345070000000     0.026250000000     0.0360889  
H47      H      0.819410000000     0.305070000000     0.893160000000     0.0344271  
H48      H      0.765700000000     0.243730000000     0.894260000000     0.0455837  
H49      H      0.238280000000     0.767500000000     0.066690000000     0.045409   
H50      H      0.293600000000     0.827970000000     0.065100000000     0.0301369  
H51      H      0.331150000000     0.790160000000     0.930140000000     0.0293776  
H52      H      0.279190000000     0.727810000000     0.932660000000     0.0456129  
H53      H      0.205750000000     0.709200000000     0.928620000000     0.0454025  
H54      H      0.151550000000     0.649030000000     0.928510000000     0.0301975  
H55      H      0.167980000000     0.632760000000     0.071880000000     0.0307512  
H56      H      0.225560000000     0.691140000000     0.071800000000     0.0454336  
H57      H      0.217920000000     0.570740000000     0.767690000000     0.0456508  
H58      H      0.155740000000     0.568740000000     0.820390000000     0.034491   
H59      H      0.131500000000     0.429600000000     0.786500000000     0.0354964  
H60      H      0.193240000000     0.432130000000     0.732810000000     0.045892   
H61      H      0.275060000000     0.436900000000     0.735630000000     0.0459182  
H62      H      0.337000000000     0.436460000000     0.682160000000     0.0350544  
H63      H      0.297610000000     0.568360000000     0.635780000000     0.0340474  
H64      H      0.235250000000     0.568160000000     0.688400000000     0.0454343  
H65      H      0.773010000000     0.397220000000     0.229470000000     0.0454545  
H66      H      0.832610000000     0.399630000000     0.173130000000     0.0303236  
H67      H      0.798510000000     0.537130000000     0.142720000000     0.0296879  
H68      H      0.737090000000     0.534010000000     0.195760000000     0.0456132  
H69      H      0.718930000000     0.534410000000     0.269720000000     0.0455564  
H70      H      0.657320000000     0.533760000000     0.322400000000     0.0294504  
H71      H      0.636280000000     0.392560000000     0.297430000000     0.0301851  
H72      H      0.696210000000     0.393670000000     0.241260000000     0.0455592  
H73      H      0.760360000000     0.313200000000     0.447460000000     0.0458202  
H74      H      0.696860000000     0.364260000000     0.450220000000     0.0376576  
H75      H      0.653150000000     0.303700000000     0.574850000000     0.0347875  
H76      H      0.716690000000     0.251890000000     0.571600000000     0.0451655  
H77      H      0.798650000000     0.242590000000     0.574100000000     0.0454235  
H78      H      0.852790000000     0.181530000000     0.566170000000     0.0356449  
H79      H      0.822790000000     0.173600000000     0.424130000000     0.0343461  
H80      H      0.768510000000     0.233900000000     0.432270000000     0.0454401  
H81      H      0.164420000000     0.717540000000     0.392500000000     0.0453581  
H82      H      0.110690000000     0.778940000000     0.400430000000     0.0349648  
H83      H      0.141340000000     0.787230000000     0.542330000000     0.034214   
H84      H      0.195210000000     0.726560000000     0.534170000000     0.0453315  
H85      H      0.246490000000     0.708520000000     0.394840000000     0.0452412  
H86      H      0.310190000000     0.656930000000     0.391630000000     0.0347146  
H87      H      0.266640000000     0.596230000000     0.516270000000     0.0365304  
H88      H      0.202970000000     0.647090000000     0.518990000000     0.045527   
H89      H      0.248250000000     0.891870000000     0.661670000000     0.0453162  
H90      H      0.186730000000     0.900220000000     0.608100000000     0.0352992  
H91      H      0.175870000000     0.040700000000     0.642810000000     0.0348069  
H92      H      0.236730000000     0.032110000000     0.696580000000     0.0454434  
H93      H      0.316360000000     0.018340000000     0.703890000000     0.0454852  
H94      H      0.367660000000     0.014660000000     0.767280000000     0.0366184  
H95      H      0.310080000000     0.887620000000     0.807200000000     0.0352822  
H96      H      0.258000000000     0.891760000000     0.743760000000     0.0453701  
H97      H      0.728510000000     0.929210000000     0.268900000000     0.045291   
H98      H      0.789570000000     0.920730000000     0.322450000000     0.034294   
H99      H      0.778370000000     0.061120000000     0.357430000000     0.0351809  
H100     H      0.716660000000     0.069350000000     0.304030000000     0.0453385  
H101     H      0.648660000000     0.942870000000     0.262090000000     0.0454985  
H102     H      0.597120000000     0.946450000000     0.198890000000     0.0366102  
H103     H      0.654620000000     0.073400000000     0.158530000000     0.0347698  
H104     H      0.706900000000     0.069360000000     0.221810000000     0.0451962  
H105     H      0.896010000000     0.804360000000     0.214650000000     0.0453907  
H106     H      0.903640000000     0.857640000000     0.276550000000     0.0351703  
H107     H      0.044090000000     0.823280000000     0.288590000000     0.0343443  
H108     H      0.036190000000     0.769760000000     0.227460000000     0.0455376  
H109     H      0.023050000000     0.761490000000     0.147730000000     0.045775   
H110     H      0.019640000000     0.697510000000     0.097130000000     0.0373529  
H111     H      0.892140000000     0.658760000000     0.154570000000     0.035251   
H112     H      0.896070000000     0.722610000000     0.205940000000     0.0453575  
H113     H      0.066200000000     0.189840000000     0.723730000000     0.0449994  
H114     H      0.061610000000     0.133750000000     0.664730000000     0.0305175  
H115     H      0.923420000000     0.107820000000     0.699220000000     0.0309799  
H116     H      0.928660000000     0.161240000000     0.760960000000     0.0452742  
H117     H      0.928170000000     0.236240000000     0.772200000000     0.0450499  
H118     H      0.929520000000     0.299690000000     0.822460000000     0.0318411  
H119     H      0.071330000000     0.280450000000     0.844860000000     0.0318338  
H120     H      0.069670000000     0.214010000000     0.796600000000     0.0450838  
Mg1      Mg     0.056330000000     0.912190000000     0.539850000000     0.783639   
Mg2      Mg     0.050880000000     0.038000000000     0.556340000000     0.783981   
Mg3      Mg     0.914450000000     0.923530000000     0.408720000000     0.782723   
Mg4      Mg     0.924350000000     0.052430000000     0.552450000000     0.782107   
Mg5      Mg     0.040550000000     0.908480000000     0.413620000000     0.78361    
Mg6      Mg     0.908590000000     0.049200000000     0.426040000000     0.7831     
Mg7      Mg     0.051260000000     0.422820000000     0.911960000000     0.782475   
Mg8      Mg     0.052590000000     0.549340000000     0.925520000000     0.795612   
Mg9      Mg     0.905520000000     0.416490000000     0.036650000000     0.79146    
Mg10     Mg     0.032370000000     0.557930000000     0.050100000000     0.790017   
Mg11     Mg     0.926050000000     0.408850000000     0.911840000000     0.794156   
Mg12     Mg     0.907260000000     0.543160000000     0.049850000000     0.785755   
Mg13     Mg     0.412570000000     0.425260000000     0.554860000000     0.791293   
Mg14     Mg     0.405420000000     0.549580000000     0.533660000000     0.793435   
Mg15     Mg     0.558260000000     0.412070000000     0.433110000000     0.789784   
Mg16     Mg     0.425060000000     0.550980000000     0.409360000000     0.782772   
Mg17     Mg     0.538800000000     0.410530000000     0.557840000000     0.781626   
Mg18     Mg     0.551240000000     0.536980000000     0.413560000000     0.794195   
Mg19     Mg     0.411360000000     0.029850000000     0.907600000000     0.792162   
Mg20     Mg     0.416760000000     0.905080000000     0.922930000000     0.783404   
Mg21     Mg     0.548040000000     0.056020000000     0.043190000000     0.780871   
Mg22     Mg     0.428950000000     0.904890000000     0.050160000000     0.789429   
Mg23     Mg     0.534250000000     0.056510000000     0.916450000000     0.792849   
Mg24     Mg     0.552320000000     0.931260000000     0.058970000000     0.791616   
O1       O      0.017020000000     0.970750000000     0.565250000000    -0.408007   
O2       O      0.899870000000     0.014000000000     0.492700000000    -0.40773    
O3       O      0.946670000000     0.986510000000     0.584780000000    -0.338322   
O4       O      0.084180000000     0.017160000000     0.490300000000    -0.33898    
O5       O      0.014230000000     0.871140000000     0.352090000000    -0.327419   
O6       O      0.022550000000     0.068240000000     0.621810000000    -0.327128   
O7       O      0.990730000000     0.878720000000     0.517880000000    -0.337857   
O8       O      0.991280000000     0.062610000000     0.517860000000    -0.406817   
O9       O      0.843260000000     0.020570000000     0.395030000000    -0.325305   
O10      O      0.943330000000     0.894070000000     0.342710000000    -0.325673   
O11      O      0.880750000000     0.944070000000     0.474770000000    -0.338046   
O12      O      0.892850000000     0.118200000000     0.524910000000    -0.324194   
O13      O      0.112370000000     0.011500000000     0.594040000000    -0.325344   
O14      O      0.071500000000     0.842750000000     0.441510000000    -0.325212   
O15      O      0.973640000000     0.898760000000     0.447840000000    -0.407414   
O16      O      0.948260000000     0.990810000000     0.400480000000    -0.407553   
O17      O      0.018490000000     0.974490000000     0.380930000000    -0.337729   
O18      O      0.870180000000     0.109540000000     0.453630000000    -0.32625    
O19      O      0.065190000000     0.947060000000     0.473050000000    -0.408753   
O20      O      0.973980000000     0.082940000000     0.447970000000    -0.338087   
O21      O      0.094410000000     0.851570000000     0.512660000000    -0.327023   
O22      O      0.950690000000     0.089250000000     0.614600000000    -0.325848   
O23      O      0.121730000000     0.940690000000     0.570740000000    -0.325272   
O24      O      0.853200000000     0.950130000000     0.370860000000    -0.326168   
O25      O      0.064360000000     0.481460000000     0.957220000000    -0.4063     
O26      O      0.975100000000     0.513680000000     0.066070000000    -0.412651   
O27      O      0.073670000000     0.496180000000     0.030110000000    -0.337631   
O28      O      0.994370000000     0.525080000000     0.882440000000    -0.341232   
O29      O      0.866790000000     0.364910000000     0.928740000000    -0.33338    
O30      O      0.110400000000     0.582870000000     0.963110000000    -0.332506   
O31      O      0.025380000000     0.383430000000     0.972530000000    -0.339476   
O32      O      0.005140000000     0.566970000000     0.979980000000    -0.413589   
O33      O      0.872350000000     0.507450000000     0.108500000000    -0.330716   
O34      O      0.846950000000     0.383210000000     0.998870000000    -0.329522   
O35      O      0.964080000000     0.441080000000     0.079280000000    -0.340211   
O36      O      0.994500000000     0.619380000000     0.077310000000    -0.327817   
O37      O      0.099460000000     0.530550000000     0.869290000000    -0.333061   
O38      O      0.963280000000     0.348170000000     0.883230000000    -0.330095   
O39      O      0.953120000000     0.399140000000     0.981870000000    -0.412172   
O40      O      0.893880000000     0.484570000000     0.004990000000    -0.407366   
O41      O      0.884790000000     0.470380000000     0.932050000000    -0.338806   
O42      O      0.922720000000     0.604800000000     0.093830000000    -0.323727   
O43      O      0.983370000000     0.452590000000     0.895800000000    -0.413875   
O44      O      0.932940000000     0.582760000000     0.989340000000    -0.339908   
O45      O      0.035810000000     0.360740000000     0.868280000000    -0.323126   
O46      O      0.092340000000     0.601760000000     0.033620000000    -0.331771   
O47      O      0.086150000000     0.458520000000     0.852570000000    -0.328072   
O48      O      0.859140000000     0.434810000000     0.093920000000    -0.33131    
O49      O      0.397440000000     0.479830000000     0.506050000000    -0.411901   
O50      O      0.483870000000     0.505670000000     0.398330000000    -0.406546   
O51      O      0.384350000000     0.490320000000     0.433240000000    -0.338535   
O52      O      0.465510000000     0.529200000000     0.577410000000    -0.336976   
O53      O      0.600700000000     0.366060000000     0.543990000000    -0.322632   
O54      O      0.345560000000     0.577110000000     0.493620000000    -0.328327   
O55      O      0.438990000000     0.382210000000     0.497250000000    -0.339897   
O56      O      0.451750000000     0.566260000000     0.478570000000    -0.415653   
O57      O      0.587050000000     0.499750000000     0.357130000000    -0.333822   
O58      O      0.618090000000     0.383990000000     0.473010000000    -0.327107   
O59      O      0.498290000000     0.432780000000     0.389640000000    -0.337753   
O60      O      0.462440000000     0.610270000000     0.376270000000    -0.327987   
O61      O      0.359150000000     0.532690000000     0.590970000000    -0.33531    
O62      O      0.501180000000     0.351320000000     0.590960000000    -0.327764   
O63      O      0.511810000000     0.395620000000     0.488600000000    -0.41292    
O64      O      0.566410000000     0.481840000000     0.461520000000    -0.411339   
O65      O      0.579830000000     0.470960000000     0.534190000000    -0.33872    
O66      O      0.534940000000     0.593730000000     0.365800000000    -0.330672   
O67      O      0.480170000000     0.456300000000     0.569210000000    -0.405759   
O68      O      0.524610000000     0.579720000000     0.471020000000    -0.341758   
O69      O      0.429080000000     0.368820000000     0.602690000000    -0.331607   
O70      O      0.362950000000     0.595080000000     0.422690000000    -0.323612   
O71      O      0.377280000000     0.463130000000     0.612220000000    -0.330431   
O72      O      0.604490000000     0.428950000000     0.374930000000    -0.332144   
O73      O      0.397500000000     0.972290000000     0.952150000000    -0.413384   
O74      O      0.481330000000     0.955330000000     0.067350000000    -0.411204   
O75      O      0.383920000000     0.961170000000     0.024780000000    -0.340411   
O76      O      0.476220000000     0.933420000000     0.883570000000    -0.339789   
O77      O      0.588190000000     0.105940000000     0.935020000000    -0.333223   
O78      O      0.359790000000     0.867490000000     0.958570000000    -0.330251   
O79      O      0.429130000000     0.072440000000     0.969370000000    -0.337324   
O80      O      0.461730000000     0.894090000000     0.982220000000    -0.40542    
O81      O      0.577660000000     0.970550000000     0.120310000000    -0.32822    
O82      O      0.605920000000     0.093050000000     0.007030000000    -0.327626   
O83      O      0.488470000000     0.027940000000     0.082900000000    -0.338184   
O84      O      0.468950000000     0.848380000000     0.084650000000    -0.32884    
O85      O      0.372260000000     0.918360000000     0.860630000000    -0.322086   
O86      O      0.494060000000     0.113070000000     0.882500000000    -0.329986   
O87      O      0.502180000000     0.067030000000     0.984410000000    -0.405962   
O88      O      0.566490000000     0.988650000000     0.014080000000    -0.412954   
O89      O      0.579660000000     0.000170000000     0.941430000000    -0.339885   
O90      O      0.537560000000     0.871830000000     0.103760000000    -0.33284    
O91      O      0.482370000000     0.006080000000     0.899000000000    -0.413682   
O92      O      0.534700000000     0.888430000000     0.997460000000    -0.33759    
O93      O      0.425640000000     0.089490000000     0.863030000000    -0.333516   
O94      O      0.374000000000     0.855630000000     0.031690000000    -0.330003   
O95      O      0.386150000000     0.990700000000     0.846200000000    -0.328491   
O96      O      0.592790000000     0.042490000000     0.105140000000    -0.322782   


