data_structure

_audit_creation_method RASPA-1.0
_audit_creation_date 2023-5-9
_audit_author_name 'Poobodin Mano'

_cell_length_a    23.7079
_cell_length_b    23.5929
_cell_length_c    23.6968
_cell_angle_alpha 89.9989
_cell_angle_beta  90.0003
_cell_angle_gamma 89.9992
_cell_volume      13254.5

_symmetry_cell_setting          triclinic
_symmetry_space_group_name_Hall 'P 1'
_symmetry_space_group_name_H-M  'P 1'
_symmetry_Int_Tables_number     1

_symmetry_equiv_pos_as_xyz 'x,y,z'

loop_
_atom_site_label
_atom_site_type_symbol
_atom_site_fract_x
_atom_site_fract_y
_atom_site_fract_z
_atom_site_charge
C1       C      0.996260000000     0.114480000000     0.466990000000     0.354644   
C2       C      0.995460000000     0.827800000000     0.314620000000     0.331332   
C3       C      0.793810000000     0.956920000000     0.349720000000     0.319978   
C4       C      0.984980000000     0.996200000000     0.354390000000     0.361679   
C5       C      0.827810000000     0.157380000000     0.472650000000     0.3334     
C6       C      0.975420000000     0.147240000000     0.656370000000     0.331496   
C7       C      0.857180000000     0.971130000000     0.509600000000     0.360949   
C8       C      0.114180000000     0.003070000000     0.461940000000     0.360576   
C9       C      0.986440000000     0.978120000000     0.617250000000     0.361722   
C10      C      0.975120000000     0.859810000000     0.504530000000     0.35406    
C11      C      0.177470000000     0.017670000000     0.621830000000     0.319737   
C12      C      0.143850000000     0.816800000000     0.499020000000     0.332411   
C13      C      0.886600000000     0.451730000000     0.905040000000     0.359207   
C14      C      0.113410000000     0.686610000000     0.959470000000     0.320165   
C15      C      0.152210000000     0.489480000000     0.822570000000     0.329585   
C16      C      0.993310000000     0.580030000000     0.887270000000     0.358311   
C17      C      0.971050000000     0.335950000000     0.809110000000     0.330795   
C18      C      0.855630000000     0.289450000000     0.009310000000     0.321735   
C19      C      0.078350000000     0.407020000000     0.953620000000     0.357907   
C20      C      0.886700000000     0.570080000000     0.013260000000     0.355793   
C21      C      0.973790000000     0.398840000000     0.079850000000     0.358852   
C22      C      0.078290000000     0.526150000000     0.063700000000     0.357553   
C23      C      0.813300000000     0.487300000000     0.144340000000     0.32582    
C24      C      0.993920000000     0.642530000000     0.157640000000     0.330857   
C25      C      0.586420000000     0.480180000000     0.576130000000     0.360449   
C26      C      0.327220000000     0.658000000000     0.486270000000     0.326662   
C27      C      0.316480000000     0.480900000000     0.644680000000     0.33333    
C28      C      0.460180000000     0.587010000000     0.567690000000     0.3561     
C29      C      0.515740000000     0.363140000000     0.688020000000     0.319928   
C30      C      0.646350000000     0.317830000000     0.488410000000     0.328338   
C31      C      0.409290000000     0.393340000000     0.528850000000     0.35897    
C32      C      0.567770000000     0.584320000000     0.447410000000     0.357598   
C33      C      0.515000000000     0.391870000000     0.408010000000     0.356375   
C34      C      0.390960000000     0.497710000000     0.398490000000     0.357873   
C35      C      0.660420000000     0.496270000000     0.331650000000     0.329833   
C36      C      0.460830000000     0.615600000000     0.287990000000     0.320323   
C37      C      0.485010000000     0.858950000000     0.959470000000     0.355845   
C38      C      0.680410000000     0.120760000000     0.999820000000     0.322471   
C39      C      0.620530000000     0.971440000000     0.179390000000     0.321259   
C40      C      0.612810000000     0.959870000000     0.984680000000     0.35584    
C41      C      0.470000000000     0.792290000000     0.120300000000     0.321439   
C42      C      0.290490000000     0.853750000000     0.971650000000     0.321328   
C43      C      0.459520000000     0.987890000000     0.113820000000     0.355921   
C44      C      0.511370000000     0.987090000000     0.857820000000     0.356121   
C45      C      0.358000000000     0.014930000000     0.986870000000     0.35514    
C46      C      0.485970000000     0.115930000000     0.012230000000     0.355838   
C47      C      0.350590000000     0.003620000000     0.792270000000     0.321228   
C48      C      0.501330000000     0.183090000000     0.851950000000     0.320809   
C49      C      0.414170000000     0.732540000000     0.187820000000    -0.00636484 
C50      C      0.463600000000     0.741090000000     0.156010000000    -0.0769323  
C51      C      0.509220000000     0.704040000000     0.163800000000    -0.00564956 
C52      C      0.506370000000     0.660690000000     0.203960000000    -0.00967589 
C53      C      0.458450000000     0.654410000000     0.238590000000    -0.0750092  
C54      C      0.411910000000     0.690140000000     0.229320000000    -0.00955642 
C55      C      0.467710000000     0.316740000000     0.769930000000    -0.00966258 
C56      C      0.516620000000     0.323530000000     0.736820000000    -0.0749201  
C57      C      0.562580000000     0.287140000000     0.746380000000    -0.00943981 
C58      C      0.558880000000     0.243740000000     0.786720000000    -0.00649311 
C59      C      0.508550000000     0.234750000000     0.816990000000    -0.0765222  
C60      C      0.463410000000     0.272330000000     0.808880000000    -0.00585384 
C61      C      0.810810000000     0.205420000000     0.963190000000    -0.00913039 
C62      C      0.817320000000     0.239670000000     0.011460000000    -0.0758097  
C63      C      0.782270000000     0.229680000000     0.058250000000    -0.00912366 
C64      C      0.740240000000     0.187890000000     0.055910000000    -0.00630316 
C65      C      0.731390000000     0.156510000000     0.006150000000    -0.0772795  
C66      C      0.767800000000     0.164950000000     0.960270000000    -0.00557558 
C67      C      0.159420000000     0.769250000000     0.007030000000    -0.00946856 
C68      C      0.152640000000     0.735760000000     0.958260000000    -0.0748224  
C69      C      0.188070000000     0.745890000000     0.911800000000    -0.00947003 
C70      C      0.230520000000     0.787250000000     0.914830000000    -0.00624844 
C71      C      0.239470000000     0.818000000000     0.964960000000    -0.0766874  
C72      C      0.202850000000     0.809230000000     0.010640000000    -0.00573793 
C73      C      0.177100000000     0.475220000000     0.721480000000    -0.00601043 
C74      C      0.194520000000     0.483160000000     0.777700000000    -0.0809165  
C75      C      0.252140000000     0.487290000000     0.789970000000    -0.00612829 
C76      C      0.291780000000     0.483920000000     0.746620000000    -0.0051569  
C77      C      0.274330000000     0.478110000000     0.690130000000    -0.0826617  
C78      C      0.216700000000     0.473610000000     0.677890000000    -0.00504045 
C79      C      0.759850000000     0.441020000000     0.221260000000    -0.00719271 
C80      C      0.772780000000     0.490370000000     0.190950000000    -0.0805951  
C81      C      0.750400000000     0.542580000000     0.208470000000    -0.00624369 
C82      C      0.714030000000     0.545010000000     0.254900000000    -0.00548853 
C83      C      0.701860000000     0.495660000000     0.285680000000    -0.0823835  
C84      C      0.725380000000     0.443790000000     0.268790000000    -0.00629011 
C85      C      0.758390000000     0.212600000000     0.528430000000    -0.00444133 
C86      C      0.783370000000     0.200710000000     0.475960000000    -0.0830349  
C87      C      0.761880000000     0.226420000000     0.427070000000    -0.0044113  
C88      C      0.716670000000     0.264230000000     0.430870000000    -0.00686376 
C89      C      0.691310000000     0.275340000000     0.483330000000    -0.0808376  
C90      C      0.712360000000     0.249020000000     0.531980000000    -0.00787521 
C91      C      0.214190000000     0.761590000000     0.444210000000    -0.00450544 
C92      C      0.188470000000     0.773550000000     0.496300000000    -0.0825939  
C93      C      0.209570000000     0.748190000000     0.545560000000    -0.00410009 
C94      C      0.255220000000     0.710820000000     0.542540000000    -0.00731202 
C95      C      0.281450000000     0.699790000000     0.490490000000    -0.0797103  
C96      C      0.260670000000     0.725620000000     0.441440000000    -0.00823464 
C97      C      0.246900000000     0.066090000000     0.687080000000    -0.00897211 
C98      C      0.228940000000     0.017330000000     0.658000000000    -0.0739583  
C99      C      0.257060000000     0.965740000000     0.668660000000    -0.00984338 
C100     C      0.298680000000     0.962030000000     0.710220000000    -0.00570223 
C101     C      0.314310000000     0.009960000000     0.741550000000    -0.0763778  
C102     C      0.289510000000     0.062520000000     0.728110000000    -0.00699947 
C103     C      0.714250000000     0.009000000000     0.302980000000    -0.0099488  
C104     C      0.742330000000     0.957360000000     0.313530000000    -0.0740288  
C105     C      0.724320000000     0.908680000000     0.284350000000    -0.00909325 
C106     C      0.681670000000     0.912380000000     0.243360000000    -0.00709281 
C107     C      0.656880000000     0.964990000000     0.230040000000    -0.0765039  
C108     C      0.672590000000     0.012840000000     0.261450000000    -0.00575932 
C109     C      0.947750000000     0.746640000000     0.268340000000    -0.00478089 
C110     C      0.995120000000     0.782130000000     0.272480000000    -0.0820927  
C111     C      0.043330000000     0.770020000000     0.240280000000    -0.00437326 
C112     C      0.043580000000     0.723760000000     0.203470000000    -0.00637818 
C113     C      0.996320000000     0.687990000000     0.199890000000    -0.0819818  
C114     C      0.948610000000     0.699600000000     0.232910000000    -0.00751883 
C115     C      0.926040000000     0.205050000000     0.729520000000    -0.00424314 
C116     C      0.974650000000     0.193700000000     0.697640000000    -0.0821449  
C117     C      0.020670000000     0.231040000000     0.700600000000    -0.00460957 
C118     C      0.018070000000     0.279130000000     0.734610000000    -0.0076686  
C119     C      0.969950000000     0.289960000000     0.767360000000    -0.0816964  
C120     C      0.924070000000     0.252360000000     0.764890000000    -0.00653417 
H1       H      0.840520000000     0.969150000000     0.552020000000    -0.0628357  
H2       H      0.986200000000     0.937380000000     0.638110000000    -0.0624332  
H3       H      0.130910000000     0.005140000000     0.419550000000    -0.0625773  
H4       H      0.935140000000     0.839500000000     0.513010000000    -0.0592609  
H5       H      0.985350000000     0.036930000000     0.333500000000    -0.0623734  
H6       H      0.036220000000     0.134860000000     0.458540000000    -0.0594486  
H7       H      0.086220000000     0.368870000000     0.977640000000    -0.0606231  
H8       H      0.000380000000     0.401100000000     0.116840000000    -0.0603802  
H9       H      0.877720000000     0.607910000000     0.989140000000    -0.0593289  
H10      H      0.119390000000     0.506330000000     0.063290000000    -0.0596453  
H11      H      0.967040000000     0.578260000000     0.850020000000    -0.0618103  
H12      H      0.845460000000     0.471440000000     0.906340000000    -0.0600188  
H13      H      0.410460000000     0.351620000000     0.510050000000    -0.0605559  
H14      H      0.489880000000     0.382770000000     0.371020000000    -0.0592643  
H15      H      0.567570000000     0.625900000000     0.466560000000    -0.0592851  
H16      H      0.353670000000     0.471470000000     0.401080000000    -0.0608554  
H17      H      0.484970000000     0.596490000000     0.604800000000    -0.0605876  
H18      H      0.623890000000     0.506070000000     0.572790000000    -0.0616658  
H19      H      0.417130000000     0.994730000000     0.129180000000    -0.0605384  
H20      H      0.343040000000     0.057690000000     0.993550000000    -0.0599737  
H21      H      0.553780000000     0.980240000000     0.842490000000    -0.0605585  
H22      H      0.479790000000     0.131210000000     0.054790000000    -0.0605417  
H23      H      0.627610000000     0.917040000000     0.978050000000    -0.0602323  
H24      H      0.491230000000     0.843680000000     0.916920000000    -0.0605571  
H25      H      0.378480000000     0.760810000000     0.183030000000     0.037994   
H26      H      0.547810000000     0.709650000000     0.139950000000     0.0389955  
H27      H      0.543220000000     0.634250000000     0.210130000000     0.0449584  
H28      H      0.374490000000     0.686500000000     0.255290000000     0.0420522  
H29      H      0.431250000000     0.343620000000     0.763360000000     0.0449417  
H30      H      0.600680000000     0.291100000000     0.721470000000     0.0418294  
H31      H      0.594280000000     0.215160000000     0.791800000000     0.038283   
H32      H      0.424170000000     0.266460000000     0.831580000000     0.0394526  
H33      H      0.836760000000     0.212170000000     0.926160000000     0.044208   
H34      H      0.786160000000     0.255360000000     0.095950000000     0.0418676  
H35      H      0.712450000000     0.182590000000     0.091810000000     0.03798    
H36      H      0.761920000000     0.141450000000     0.921440000000     0.0387919  
H37      H      0.133220000000     0.762310000000     0.043850000000     0.0441647  
H38      H      0.184030000000     0.720760000000     0.873750000000     0.0426693  
H39      H      0.258440000000     0.792760000000     0.879060000000     0.0382741  
H40      H      0.208780000000     0.832220000000     0.049770000000     0.0388999  
H41      H      0.132720000000     0.472280000000     0.710990000000     0.0384874  
H42      H      0.266460000000     0.493310000000     0.832970000000     0.0390948  
H43      H      0.336070000000     0.488060000000     0.757140000000     0.038229   
H44      H      0.202310000000     0.469240000000     0.634710000000     0.0389953  
H45      H      0.777470000000     0.400490000000     0.208910000000     0.0395476  
H46      H      0.760470000000     0.581170000000     0.185820000000     0.0389731  
H47      H      0.695730000000     0.585300000000     0.266990000000     0.0390287  
H48      H      0.715730000000     0.405050000000     0.291400000000     0.0399526  
H49      H      0.773480000000     0.192610000000     0.566730000000     0.0386549  
H50      H      0.780130000000     0.217450000000     0.386120000000     0.0388114  
H51      H      0.701280000000     0.284450000000     0.392810000000     0.0413161  
H52      H      0.694090000000     0.257570000000     0.573020000000     0.0422764  
H53      H      0.199410000000     0.781300000000     0.405650000000     0.0386012  
H54      H      0.190760000000     0.757180000000     0.586250000000     0.039406   
H55      H      0.270360000000     0.690970000000     0.580890000000     0.0427714  
H56      H      0.279610000000     0.717110000000     0.400690000000     0.0422153  
H57      H      0.226470000000     0.106510000000     0.679900000000     0.0429576  
H58      H      0.244930000000     0.927180000000     0.647020000000     0.0450692  
H59      H      0.317230000000     0.921040000000     0.719220000000     0.0403758  
H60      H      0.300520000000     0.100280000000     0.751660000000     0.0403861  
H61      H      0.726420000000     0.047500000000     0.324690000000     0.0449888  
H62      H      0.744720000000     0.868220000000     0.291430000000     0.0424977  
H63      H      0.670600000000     0.874670000000     0.219750000000     0.0399784  
H64      H      0.654070000000     0.053860000000     0.252550000000     0.040233   
H65      H      0.910400000000     0.754440000000     0.293530000000     0.0379073  
H66      H      0.080540000000     0.796500000000     0.243300000000     0.0386258  
H67      H      0.080660000000     0.715840000000     0.177930000000     0.0411593  
H68      H      0.911280000000     0.673220000000     0.230190000000     0.0427122  
H69      H      0.889780000000     0.177180000000     0.727310000000     0.0385087  
H70      H      0.058220000000     0.223850000000     0.675530000000     0.0378061  
H71      H      0.054430000000     0.306890000000     0.736610000000     0.0428195  
H72      H      0.886780000000     0.259570000000     0.790330000000     0.0410156  
Mg1      Mg     0.085890000000     0.922390000000     0.566810000000     0.79254    
Mg2      Mg     0.064790000000     0.079730000000     0.568550000000     0.782676   
Mg3      Mg     0.906520000000     0.894810000000     0.403010000000     0.783465   
Mg4      Mg     0.904640000000     0.076780000000     0.560470000000     0.796226   
Mg5      Mg     0.066800000000     0.897190000000     0.410900000000     0.794076   
Mg6      Mg     0.885470000000     0.052000000000     0.404730000000     0.792788   
Mg7      Mg     0.948840000000     0.517650000000     0.119430000000     0.790416   
Mg8      Mg     0.854400000000     0.431850000000     0.025840000000     0.784091   
Mg9      Mg     0.112350000000     0.544110000000     0.942910000000     0.783249   
Mg10     Mg     0.964900000000     0.349760000000     0.948780000000     0.793754   
Mg11     Mg     0.001730000000     0.628140000000     0.018300000000     0.793029   
Mg12     Mg     0.015020000000     0.461780000000     0.847240000000     0.792477   
Mg13     Mg     0.521200000000     0.505570000000     0.347620000000     0.790667   
Mg14     Mg     0.622960000000     0.454130000000     0.457490000000     0.792576   
Mg15     Mg     0.352780000000     0.521950000000     0.517350000000     0.789814   
Mg16     Mg     0.529440000000     0.360890000000     0.545910000000     0.784705   
Mg17     Mg     0.446090000000     0.617170000000     0.430000000000     0.784071   
Mg18     Mg     0.456770000000     0.474370000000     0.628370000000     0.79338    
Mg19     Mg     0.417030000000     0.078940000000     0.894610000000     0.780712   
Mg20     Mg     0.393450000000     0.919210000000     0.896190000000     0.782219   
Mg21     Mg     0.577520000000     0.055710000000     0.075510000000     0.782352   
Mg22     Mg     0.394980000000     0.896090000000     0.055050000000     0.780808   
Mg23     Mg     0.575860000000     0.078620000000     0.916630000000     0.782347   
Mg24     Mg     0.553980000000     0.896270000000     0.077010000000     0.781656   
O1       O      0.030420000000     0.993220000000     0.590920000000    -0.413912   
O2       O      0.880200000000     0.016560000000     0.493020000000    -0.413606   
O3       O      0.940060000000     0.004250000000     0.612630000000    -0.341735   
O4       O      0.111750000000     0.048420000000     0.490410000000    -0.339777   
O5       O      0.040930000000     0.836840000000     0.341800000000    -0.329043   
O6       O      0.022860000000     0.125010000000     0.643430000000    -0.327433   
O7       O      0.008160000000     0.868610000000     0.545760000000    -0.337153   
O8       O      0.987530000000     0.094230000000     0.515780000000    -0.404624   
O9       O      0.807900000000     0.003650000000     0.372970000000    -0.325511   
O10      O      0.948390000000     0.850480000000     0.327980000000    -0.328588   
O11      O      0.859520000000     0.925740000000     0.481200000000    -0.340119   
O12      O      0.857240000000     0.148280000000     0.516740000000    -0.33107    
O13      O      0.145060000000     0.061110000000     0.620970000000    -0.318058   
O14      O      0.114560000000     0.825620000000     0.454730000000    -0.329826   
O15      O      0.983860000000     0.880020000000     0.455710000000    -0.40407    
O16      O      0.940950000000     0.981240000000     0.380720000000    -0.414188   
O17      O      0.031270000000     0.969850000000     0.358900000000    -0.341205   
O18      O      0.829300000000     0.125040000000     0.429690000000    -0.331334   
O19      O      0.091270000000     0.957550000000     0.478430000000    -0.412783   
O20      O      0.963190000000     0.105770000000     0.425770000000    -0.337564   
O21      O      0.142010000000     0.849290000000     0.541860000000    -0.330877   
O22      O      0.930190000000     0.137180000000     0.629230000000    -0.330228   
O23      O      0.163430000000     0.970900000000     0.598570000000    -0.325075   
O24      O      0.826180000000     0.913450000000     0.350600000000    -0.318141   
O25      O      0.936790000000     0.436820000000     0.072380000000    -0.412586   
O26      O      0.033020000000     0.410770000000     0.925560000000    -0.410124   
O27      O      0.986150000000     0.362990000000     0.041980000000    -0.339537   
O28      O      0.853630000000     0.527990000000     0.008270000000    -0.335426   
O29      O      0.072810000000     0.687710000000     0.994700000000    -0.325209   
O30      O      0.842730000000     0.334080000000     0.037260000000    -0.319797   
O31      O      0.043840000000     0.511740000000     0.102160000000    -0.337009   
O32      O      0.901390000000     0.420180000000     0.945760000000    -0.412228   
O33      O      0.106220000000     0.462000000000     0.817410000000    -0.330385   
O34      O      0.126210000000     0.641760000000     0.931740000000    -0.318914   
O35      O      0.111410000000     0.448710000000     0.960430000000    -0.337771   
O36      O      0.949220000000     0.325850000000     0.857120000000    -0.329975   
O37      O      0.808700000000     0.447280000000     0.108460000000    -0.327259   
O38      O      0.017370000000     0.651610000000     0.110210000000    -0.329839   
O39      O      0.064060000000     0.556870000000     0.022110000000    -0.411156   
O40      O      0.029580000000     0.541410000000     0.895030000000    -0.410646   
O41      O      0.981050000000     0.615880000000     0.925120000000    -0.340079   
O42      O      0.000700000000     0.379890000000     0.799300000000    -0.329222   
O43      O      0.932680000000     0.567170000000     0.040390000000    -0.409353   
O44      O      0.920590000000     0.467170000000     0.866630000000    -0.33893    
O45      O      0.962520000000     0.599720000000     0.166780000000    -0.329809   
O46      O      0.895370000000     0.289050000000     0.973160000000    -0.326676   
O47      O      0.855740000000     0.520480000000     0.146090000000    -0.32529    
O48      O      0.160670000000     0.525460000000     0.861950000000    -0.325745   
O49      O      0.543440000000     0.437340000000     0.409360000000    -0.41008    
O50      O      0.450330000000     0.408840000000     0.559530000000    -0.411775   
O51      O      0.509700000000     0.359770000000     0.450740000000    -0.335445   
O52      O      0.606220000000     0.549820000000     0.462020000000    -0.337591   
O53      O      0.363830000000     0.663290000000     0.447110000000    -0.327127   
O54      O      0.648810000000     0.360940000000     0.456090000000    -0.328121   
O55      O      0.427900000000     0.485430000000     0.361810000000    -0.338992   
O56      O      0.577050000000     0.443130000000     0.538690000000    -0.412966   
O57      O      0.366040000000     0.463630000000     0.655850000000    -0.333519   
O58      O      0.324810000000     0.614740000000     0.518470000000    -0.326903   
O59      O      0.371000000000     0.427210000000     0.512760000000    -0.33945    
O60      O      0.542640000000     0.349510000000     0.643100000000    -0.319237   
O61      O      0.669430000000     0.465680000000     0.374940000000    -0.329798   
O62      O      0.433040000000     0.628280000000     0.332630000000    -0.31933    
O63      O      0.399680000000     0.534250000000     0.436650000000    -0.410803   
O64      O      0.432520000000     0.541070000000     0.566200000000    -0.408167   
O65      O      0.465320000000     0.619090000000     0.524990000000    -0.336115   
O66      O      0.480900000000     0.404280000000     0.689160000000    -0.325084   
O67      O      0.525990000000     0.569640000000     0.417310000000    -0.411113   
O68      O      0.549840000000     0.493490000000     0.612730000000    -0.34126    
O69      O      0.497020000000     0.575690000000     0.287240000000    -0.32566    
O70      O      0.610580000000     0.313370000000     0.528380000000    -0.328458   
O71      O      0.613270000000     0.520340000000     0.322380000000    -0.327605   
O72      O      0.304380000000     0.506750000000     0.599010000000    -0.327191   
O73      O      0.382940000000     0.003400000000     0.940960000000    -0.405261   
O74      O      0.470600000000     0.941800000000     0.088680000000    -0.406255   
O75      O      0.356780000000     0.980940000000     0.028320000000    -0.337869   
O76      O      0.477510000000     0.945500000000     0.857080000000    -0.338318   
O77      O      0.653860000000     0.122480000000     0.952900000000    -0.322553   
O78      O      0.309720000000     0.880080000000     0.928520000000    -0.32157    
O79      O      0.444330000000     0.117580000000     0.978690000000    -0.338125   
O80      O      0.439510000000     0.884580000000     0.971170000000    -0.406256   
O81      O      0.593750000000     0.928220000000     0.160700000000    -0.3213     
O82      O      0.661220000000     0.094700000000     0.043110000000    -0.322117   
O83      O      0.493440000000     0.029430000000     0.114680000000    -0.338308   
O84      O      0.426730000000     0.811800000000     0.094470000000    -0.321258   
O85      O      0.348950000000     0.956600000000     0.819070000000    -0.322169   
O86      O      0.544310000000     0.163030000000     0.877810000000    -0.321679   
O87      O      0.531390000000     0.090150000000     0.000540000000    -0.406359   
O88      O      0.588110000000     0.971590000000     0.030670000000    -0.406186   
O89      O      0.613920000000     0.993710000000     0.943130000000    -0.338338   
O90      O      0.517170000000     0.818540000000     0.121500000000    -0.321974   
O91      O      0.500270000000     0.033220000000     0.882880000000    -0.406778   
O92      O      0.526680000000     0.857490000000     0.992980000000    -0.338215   
O93      O      0.454000000000     0.157080000000     0.850220000000    -0.32056    
O94      O      0.316960000000     0.851910000000     0.018640000000    -0.321533   
O95      O      0.377310000000     0.046910000000     0.810910000000    -0.321103   
O96      O      0.622150000000     0.018490000000     0.152630000000    -0.322256   


