data_structure

_audit_creation_method RASPA-1.0
_audit_creation_date 2023-5-9
_audit_author_name 'Poobodin Mano'

_cell_length_a    21.1856
_cell_length_b    20.8383
_cell_length_c    19.9642
_cell_angle_alpha 89.9988
_cell_angle_beta  90.0003
_cell_angle_gamma 89.9991
_cell_volume      8813.63

_symmetry_cell_setting          triclinic
_symmetry_space_group_name_Hall 'P 1'
_symmetry_space_group_name_H-M  'P 1'
_symmetry_Int_Tables_number     1

_symmetry_equiv_pos_as_xyz 'x,y,z'

loop_
_atom_site_label
_atom_site_type_symbol
_atom_site_fract_x
_atom_site_fract_y
_atom_site_fract_z
_atom_site_charge
C1       C      0.267160000000     0.134350000000     0.615130000000     0.353163   
C2       C      0.079610000000     0.444790000000     0.600050000000     0.386977   
C3       C      0.315120000000     0.426390000000     0.742990000000     0.386189   
C4       C      0.206220000000     0.304350000000     0.580490000000     0.355991   
C5       C      0.427100000000     0.177550000000     0.710960000000     0.386558   
C6       C      0.257910000000     0.976880000000     0.782650000000     0.386566   
C7       C      0.243810000000     0.262970000000     0.811950000000     0.353588   
C8       C      0.091990000000     0.158580000000     0.573690000000     0.355102   
C9       C      0.131900000000     0.117070000000     0.805960000000     0.357202   
C10      C      0.069430000000     0.289710000000     0.769600000000     0.358384   
C11      C      0.018410000000     0.996630000000     0.647330000000     0.387933   
C12      C      0.910020000000     0.243220000000     0.670570000000     0.39041    
C13      C      0.106930000000     0.607310000000     0.094740000000     0.357186   
C14      C      0.120120000000     0.920240000000     0.293920000000     0.386346   
C15      C      0.243070000000     0.891910000000     0.043120000000     0.391071   
C16      C      0.087650000000     0.780820000000     0.160840000000     0.358868   
C17      C      0.201120000000     0.644850000000     0.924800000000     0.38955    
C18      C      0.249770000000     0.436890000000     0.105280000000     0.384439   
C19      C      0.301870000000     0.721270000000     0.118230000000     0.352818   
C20      C      0.071660000000     0.636800000000     0.281750000000     0.352628   
C21      C      0.285850000000     0.575760000000     0.236920000000     0.357774   
C22      C      0.266520000000     0.751390000000     0.303270000000     0.358446   
C23      C      0.129160000000     0.468860000000     0.359370000000     0.388683   
C24      C      0.171090000000     0.712190000000     0.473690000000     0.394116   
C25      C      0.729190000000     0.586620000000     0.858080000000     0.359136   
C26      C      0.763330000000     0.921130000000     0.697430000000     0.389162   
C27      C      0.595930000000     0.870870000000     0.914660000000     0.391686   
C28      C      0.768040000000     0.765390000000     0.818120000000     0.355523   
C29      C      0.596430000000     0.614240000000     0.003690000000     0.391252   
C30      C      0.585820000000     0.428590000000     0.794040000000     0.387469   
C31      C      0.547290000000     0.714530000000     0.805200000000     0.357062   
C32      C      0.804090000000     0.634170000000     0.688420000000     0.353335   
C33      C      0.584900000000     0.581360000000     0.673820000000     0.359621   
C34      C      0.621330000000     0.759750000000     0.636570000000     0.355373   
C35      C      0.759140000000     0.476140000000     0.580480000000     0.386835   
C36      C      0.746830000000     0.735260000000     0.487200000000     0.388012   
C37      C      0.634550000000     0.112160000000     0.091730000000     0.352323   
C38      C      0.943130000000     0.253930000000     0.222650000000     0.394687   
C39      C      0.867160000000     0.999370000000     0.283160000000     0.387169   
C40      C      0.808060000000     0.153880000000     0.125940000000     0.358648   
C41      C      0.632270000000     0.932020000000     0.158340000000     0.393185   
C42      C      0.437830000000     0.116000000000     0.198700000000     0.386291   
C43      C      0.697600000000     0.079200000000     0.319730000000     0.357516   
C44      C      0.685630000000     0.289640000000     0.104030000000     0.357771   
C45      C      0.572100000000     0.215510000000     0.295610000000     0.357176   
C46      C      0.747180000000     0.253910000000     0.331350000000     0.356581   
C47      C      0.519260000000     0.373210000000     0.138280000000     0.385711   
C48      C      0.752510000000     0.434380000000     0.270600000000     0.39526    
C49      C      0.664050000000     0.748620000000     0.292990000000    -0.0395362  
C50      C      0.753920000000     0.712420000000     0.366150000000    -0.0219047  
C51      C      0.682530000000     0.794950000000     0.183080000000     0.0229464  
C52      C      0.729350000000     0.744440000000     0.303950000000     0.016539   
C53      C      0.657070000000     0.822660000000     0.118820000000    -0.0199196  
C54      C      0.771100000000     0.767000000000     0.254730000000    -0.0432362  
C55      C      0.747860000000     0.792120000000     0.194700000000    -0.0392841  
C56      C      0.640820000000     0.773220000000     0.232820000000    -0.0403335  
C57      C      0.586100000000     0.584280000000     0.234810000000    -0.0436936  
C58      C      0.570600000000     0.637640000000     0.122840000000    -0.0224369  
C59      C      0.691070000000     0.567200000000     0.280050000000     0.0232867  
C60      C      0.612090000000     0.615680000000     0.179130000000     0.0207406  
C61      C      0.733610000000     0.536480000000     0.331070000000    -0.0187821  
C62      C      0.677740000000     0.623460000000     0.174600000000    -0.0376414  
C63      C      0.717000000000     0.599570000000     0.224890000000    -0.0388832  
C64      C      0.625330000000     0.560490000000     0.285130000000    -0.0367535  
C65      C      0.155670000000     0.271560000000     0.255680000000    -0.0389191  
C66      C      0.053140000000     0.215460000000     0.230970000000    -0.0192367  
C67      C      0.228610000000     0.298440000000     0.166280000000     0.0254232  
C68      C      0.117010000000     0.239070000000     0.209840000000     0.0153756  
C69      C      0.288250000000     0.330120000000     0.142920000000    -0.0212817  
C70      C      0.134710000000     0.236040000000     0.142180000000    -0.0396304  
C71      C      0.190460000000     0.265090000000     0.120630000000    -0.043003   
C72      C      0.211270000000     0.300840000000     0.234100000000    -0.0398667  
C73      C      0.224260000000     0.101790000000     0.160390000000    -0.0393545  
C74      C      0.326490000000     0.153490000000     0.196850000000    -0.0199062  
C75      C      0.148340000000     0.061720000000     0.241650000000     0.0253777  
C76      C      0.262250000000     0.125790000000     0.212160000000     0.0143969  
C77      C      0.086400000000     0.029070000000     0.256850000000    -0.0217119  
C78      C      0.242440000000     0.118310000000     0.278850000000    -0.0406367  
C79      C      0.185630000000     0.087040000000     0.293470000000    -0.0431293  
C80      C      0.167830000000     0.070000000000     0.174950000000    -0.0424688  
C81      C      0.441300000000     0.006460000000     0.919730000000    -0.0433392  
C82      C      0.554980000000     0.979600000000     0.946130000000    -0.0218159  
C83      C      0.360880000000     0.003220000000     0.006540000000     0.0164832  
C84      C      0.488330000000     0.994410000000     0.967600000000     0.0178436  
C85      C      0.292130000000     0.999640000000     0.025220000000    -0.021428   
C86      C      0.471420000000     0.990290000000     0.035570000000    -0.0456736  
C87      C      0.408100000000     0.993940000000     0.054860000000    -0.0383054  
C88      C      0.378240000000     0.011720000000     0.939340000000    -0.046128   
C89      C      0.908080000000     0.472800000000     0.420360000000    -0.0440687  
C90      C      0.801790000000     0.443360000000     0.469020000000    -0.0244956  
C91      C      0.991970000000     0.393920000000     0.406930000000     0.0188558  
C92      C      0.869050000000     0.426620000000     0.450580000000     0.0235932  
C93      C      0.057670000000     0.376410000000     0.383150000000    -0.0224716  
C94      C      0.891950000000     0.363740000000     0.458420000000    -0.0406373  
C95      C      0.953000000000     0.347670000000     0.437220000000    -0.0422924  
C96      C      0.968570000000     0.456510000000     0.398210000000    -0.0380641  
C97      C      0.647180000000     0.301730000000     0.662910000000    -0.0406654  
C98      C      0.554580000000     0.327190000000     0.737710000000    -0.0220413  
C99      C      0.736860000000     0.240780000000     0.703920000000     0.0155529  
C100     C      0.618180000000     0.297300000000     0.725960000000     0.0264006  
C101     C      0.800200000000     0.210170000000     0.691910000000    -0.0203296  
C102     C      0.648230000000     0.263200000000     0.777470000000    -0.0406558  
C103     C      0.707320000000     0.235450000000     0.766670000000    -0.040161   
C104     C      0.705920000000     0.273330000000     0.651850000000    -0.0379911  
C105     C      0.616260000000     0.079060000000     0.661990000000    -0.0431353  
C106     C      0.507080000000     0.091660000000     0.711280000000    -0.0212603  
C107     C      0.706490000000     0.054800000000     0.732980000000     0.0234138  
C108     C      0.577570000000     0.084850000000     0.718760000000     0.0140113  
C109     C      0.773930000000     0.032440000000     0.740980000000    -0.0206158  
C110     C      0.604820000000     0.080600000000     0.782650000000    -0.039877   
C111     C      0.668630000000     0.065040000000     0.789750000000    -0.04309    
C112     C      0.680370000000     0.064490000000     0.669050000000    -0.0411794  
C113     C      0.435310000000     0.501180000000     0.911270000000    -0.0357135  
C114     C      0.417210000000     0.463180000000     0.792100000000    -0.0207697  
C115     C      0.427450000000     0.427970000000     0.006010000000     0.0237668  
C116     C      0.420820000000     0.451080000000     0.866650000000     0.0214718  
C117     C      0.424170000000     0.416910000000     0.080730000000    -0.0238162  
C118     C      0.409290000000     0.389490000000     0.892380000000    -0.0406418  
C119     C      0.413020000000     0.377930000000     0.961300000000    -0.042772   
C120     C      0.438630000000     0.489710000000     0.980340000000    -0.0422057  
C121     C      0.969890000000     0.858380000000     0.408880000000    -0.0399058  
C122     C      0.882980000000     0.888780000000     0.329040000000    -0.0207359  
C123     C      0.960790000000     0.880830000000     0.528140000000     0.0166783  
C124     C      0.906460000000     0.875320000000     0.399010000000     0.012543   
C125     C      0.991410000000     0.889720000000     0.596230000000    -0.0213805  
C126     C      0.869430000000     0.891480000000     0.454740000000    -0.0376513  
C127     C      0.895900000000     0.892480000000     0.518880000000    -0.0438569  
C128     C      0.997060000000     0.861840000000     0.472630000000    -0.046587   
C129     C      0.120060000000     0.809270000000     0.687720000000    -0.039411   
C130     C      0.140130000000     0.783010000000     0.566450000000    -0.0202971  
C131     C      0.205620000000     0.841510000000     0.760880000000     0.0272666  
C132     C      0.163170000000     0.798790000000     0.635530000000     0.0152106  
C133     C      0.227750000000     0.869010000000     0.826280000000    -0.0225369  
C134     C      0.227880000000     0.807830000000     0.647080000000    -0.0411874  
C135     C      0.249070000000     0.828070000000     0.709680000000    -0.0426474  
C136     C      0.141090000000     0.830950000000     0.749850000000    -0.0421579  
C137     C      0.210890000000     0.609410000000     0.705770000000    -0.0397472  
C138     C      0.184360000000     0.676430000000     0.806820000000    -0.0200037  
C139     C      0.131650000000     0.581800000000     0.622720000000     0.0277505  
C140     C      0.165780000000     0.644100000000     0.742340000000     0.015784   
C141     C      0.114140000000     0.551020000000     0.557120000000    -0.0203094  
C142     C      0.103300000000     0.646900000000     0.719010000000    -0.0407296  
C143     C      0.086480000000     0.616390000000     0.659310000000    -0.0434897  
C144     C      0.193910000000     0.578180000000     0.646610000000    -0.0408812  
H1       H      0.242870000000     0.239130000000     0.860030000000    -0.062869   
H2       H      0.095570000000     0.128650000000     0.842010000000    -0.0638023  
H3       H      0.092320000000     0.182270000000     0.525500000000    -0.0646168  
H4       H      0.081830000000     0.317090000000     0.813680000000    -0.0613741  
H5       H      0.242890000000     0.292560000000     0.544910000000    -0.063012   
H6       H      0.255240000000     0.107860000000     0.570320000000    -0.0605764  
H7       H      0.345200000000     0.693870000000     0.118960000000    -0.0617612  
H8       H      0.321150000000     0.584180000000     0.275020000000    -0.0654174  
H9       H      0.028620000000     0.664670000000     0.281700000000    -0.0644149  
H10      H      0.309770000000     0.775340000000     0.289110000000    -0.0631938  
H11      H      0.052820000000     0.772060000000     0.122340000000    -0.0641161  
H12      H      0.063000000000     0.584080000000     0.107760000000    -0.0612782  
H13      H      0.504070000000     0.690040000000     0.791960000000    -0.0637899  
H14      H      0.559170000000     0.595850000000     0.629580000000    -0.0648987  
H15      H      0.846910000000     0.659150000000     0.702140000000    -0.0609333  
H16      H      0.576320000000     0.783540000000     0.642380000000    -0.0612239  
H17      H      0.794180000000     0.750240000000     0.861850000000    -0.0624261  
H18      H      0.773830000000     0.562000000000     0.852800000000    -0.0615037  
H19      H      0.661640000000     0.074000000000     0.357760000000    -0.0627361  
H20      H      0.575170000000     0.243420000000     0.341140000000    -0.0640127  
H21      H      0.722370000000     0.294420000000     0.066800000000    -0.0618457  
H22      H      0.757500000000     0.228760000000     0.377430000000    -0.0637024  
H23      H      0.804300000000     0.125920000000     0.080510000000    -0.0629251  
H24      H      0.624530000000     0.135740000000     0.044670000000    -0.0631895  
H25      H      0.564570000000     0.865680000000     0.128860000000     0.0948114  
H26      H      0.722760000000     0.670820000000     0.376690000000     0.0439503  
H27      H      0.802400000000     0.693530000000     0.357940000000     0.0347467  
H28      H      0.590270000000     0.774980000000     0.224870000000     0.0409268  
H29      H      0.631120000000     0.731200000000     0.330310000000     0.0417969  
H30      H      0.695430000000     0.840450000000     0.085570000000     0.038483   
H31      H      0.821640000000     0.764050000000     0.262250000000     0.037163   
H32      H      0.780870000000     0.809030000000     0.157230000000     0.0399005  
H33      H      0.631550000000     0.784650000000     0.090950000000     0.0369614  
H34      H      0.767590000000     0.804260000000     0.415310000000     0.098467   
H35      H      0.823220000000     0.496560000000     0.301240000000     0.0975075  
H36      H      0.520130000000     0.637510000000     0.138120000000     0.0342822  
H37      H      0.582290000000     0.688030000000     0.110200000000     0.0444826  
H38      H      0.604430000000     0.535400000000     0.327150000000     0.0370213  
H39      H      0.535580000000     0.577280000000     0.238860000000     0.0389607  
H40      H      0.764220000000     0.573660000000     0.353900000000     0.0312131  
H41      H      0.698520000000     0.647400000000     0.131770000000     0.0443509  
H42      H      0.767640000000     0.605270000000     0.220260000000     0.0418491  
H43      H      0.706240000000     0.513320000000     0.372020000000     0.0359949  
H44      H      0.564640000000     0.546790000000     0.071640000000     0.100227   
H45      H      0.294350000000     0.370870000000     0.043870000000     0.0961359  
H46      H      0.041490000000     0.170760000000     0.203080000000     0.0424823  
H47      H      0.052850000000     0.203840000000     0.285360000000     0.0371499  
H48      H      0.240280000000     0.326060000000     0.270190000000     0.0443473  
H49      H      0.142210000000     0.275310000000     0.307860000000     0.0403165  
H50      H      0.314770000000     0.352350000000     0.185080000000     0.0400656  
H51      H      0.104840000000     0.212060000000     0.105960000000     0.0409199  
H52      H      0.203500000000     0.262260000000     0.068240000000     0.0423806  
H53      H      0.319070000000     0.292530000000     0.120750000000     0.0322118  
H54      H      0.020550000000     0.311200000000     0.203680000000     0.100368   
H55      H      0.070700000000     0.984700000000     0.353100000000     0.0964771  
H56      H      0.328210000000     0.171450000000     0.144420000000     0.0376918  
H57      H      0.335820000000     0.194880000000     0.230620000000     0.0413534  
H58      H      0.139380000000     0.051930000000     0.134020000000     0.0427467  
H59      H      0.238400000000     0.107530000000     0.108640000000     0.0361831  
H60      H      0.053500000000     0.065880000000     0.276990000000     0.0365687  
H61      H      0.271340000000     0.136070000000     0.319580000000     0.0410956  
H62      H      0.170980000000     0.082170000000     0.345200000000     0.0440641  
H63      H      0.064180000000     0.009070000000     0.210870000000     0.0423233  
H64      H      0.361670000000     0.058220000000     0.221320000000     0.0978012  
H65      H      0.267340000000     0.929050000000     0.950690000000     0.0998576  
H66      H      0.561870000000     0.991730000000     0.892470000000     0.0442814  
H67      H      0.588450000000     0.009400000000     0.975610000000     0.038095   
H68      H      0.342490000000     0.020150000000     0.901910000000     0.0428542  
H69      H      0.453070000000     0.010050000000     0.867070000000     0.0400346  
H70      H      0.286180000000     0.005650000000     0.080120000000     0.0458405  
H71      H      0.506980000000     0.981330000000     0.073320000000     0.0508275  
H72      H      0.395870000000     0.987610000000     0.107120000000     0.0443878  
H73      H      0.265980000000     0.038980000000     0.999840000000     0.0339274  
H74      H      0.557670000000     0.893750000000     0.006380000000     0.101138   
H75      H      0.107810000000     0.434860000000     0.454080000000     0.103115   
H76      H      0.791540000000     0.493750000000     0.454600000000     0.0466906  
H77      H      0.769270000000     0.412630000000     0.439370000000     0.0396745  
H78      H      0.996950000000     0.493000000000     0.374070000000     0.0460523  
H79      H      0.891360000000     0.521370000000     0.412670000000     0.0387946  
H80      H      0.072990000000     0.329870000000     0.404990000000     0.0342263  
H81      H      0.862360000000     0.326860000000     0.480210000000     0.0373706  
H82      H      0.969540000000     0.298900000000     0.443900000000     0.0279765  
H83      H      0.056420000000     0.370200000000     0.327880000000     0.0469248  
H84      H      0.797820000000     0.387080000000     0.559930000000     0.0967178  
H85      H      0.833560000000     0.303460000000     0.656360000000     0.10032    
H86      H      0.537380000000     0.353270000000     0.692640000000     0.0413119  
H87      H      0.520080000000     0.288410000000     0.748120000000     0.0411676  
H88      H      0.727440000000     0.277010000000     0.602770000000     0.0392852  
H89      H      0.624390000000     0.327090000000     0.622190000000     0.0429146  
H90      H      0.816110000000     0.184410000000     0.737680000000     0.041769   
H91      H      0.626010000000     0.258300000000     0.826080000000     0.0438644  
H92      H      0.729790000000     0.209590000000     0.807240000000     0.0394779  
H93      H      0.795500000000     0.174930000000     0.650390000000     0.0392311  
H94      H      0.526320000000     0.360310000000     0.835200000000     0.0992119  
H95      H      0.821440000000     0.990630000000     0.655750000000     0.0942946  
H96      H      0.490820000000     0.063890000000     0.666950000000     0.039787   
H97      H      0.483490000000     0.070390000000     0.755890000000     0.0427492  
H98      H      0.709050000000     0.058660000000     0.624560000000     0.0427101  
H99      H      0.596380000000     0.083640000000     0.612230000000     0.039863   
H100     H      0.805740000000     0.073480000000     0.730700000000     0.0335424  
H101     H      0.576130000000     0.087070000000     0.827020000000     0.0365225  
H102     H      0.688040000000     0.059500000000     0.839610000000     0.0419057  
H103     H      0.783700000000     0.016350000000     0.793090000000     0.0414722  
H104     H      0.520650000000     0.191590000000     0.683480000000     0.0972262  
H105     H      0.503010000000     0.469890000000     0.120660000000     0.09564    
H106     H      0.444900000000     0.506680000000     0.778830000000     0.035074   
H107     H      0.439280000000     0.422890000000     0.764190000000     0.048601   
H108     H      0.448760000000     0.529250000000     0.013880000000     0.0371832  
H109     H      0.443910000000     0.549230000000     0.892680000000     0.0216103  
H110     H      0.392350000000     0.453520000000     0.103060000000     0.0394629  
H111     H      0.397660000000     0.350230000000     0.859010000000     0.0455315  
H112     H      0.403320000000     0.330080000000     0.979850000000     0.0371558  
H113     H      0.403530000000     0.369240000000     0.091880000000     0.0463069  
H114     H      0.331010000000     0.517240000000     0.782130000000     0.0960437  
H115     H      0.928500000000     0.966130000000     0.626120000000     0.0971807  
H116     H      0.902750000000     0.853180000000     0.293310000000     0.0363813  
H117     H      0.830620000000     0.884940000000     0.327170000000     0.0450721  
H118     H      0.046840000000     0.851620000000     0.478010000000     0.0423007  
H119     H      0.999080000000     0.845860000000     0.366440000000     0.0339261  
H120     H      0.972420000000     0.852630000000     0.630730000000     0.032038   
H121     H      0.820630000000     0.905720000000     0.448370000000     0.0426197  
H122     H      0.866010000000     0.905120000000     0.560700000000     0.0471261  
H123     H      0.043290000000     0.883130000000     0.592680000000     0.0429865  
H124     H      0.950290000000     0.966260000000     0.323660000000     0.100974   
H125     H      0.316190000000     0.918300000000     0.839400000000     0.0954681  
H126     H      0.088470000000     0.773530000000     0.566590000000     0.0331384  
H127     H      0.149220000000     0.825480000000     0.534110000000     0.044619   
H128     H      0.106900000000     0.840230000000     0.789010000000     0.0404749  
H129     H      0.070030000000     0.801750000000     0.680180000000     0.0358588  
H130     H      0.187680000000     0.886120000000     0.857540000000     0.0409142  
H131     H      0.261840000000     0.800210000000     0.607300000000     0.0430532  
H132     H      0.299180000000     0.835210000000     0.717530000000     0.0440376  
H133     H      0.251940000000     0.830230000000     0.854630000000     0.0403911  
H134     H      0.189540000000     0.692000000000     0.573140000000     0.101496   
H135     H      0.025130000000     0.503820000000     0.539750000000     0.100112   
H136     H      0.227900000000     0.705090000000     0.798480000000     0.0398778  
H137     H      0.146540000000     0.709980000000     0.823230000000     0.0434168  
H138     H      0.229550000000     0.551870000000     0.619070000000     0.0469973  
H139     H      0.259230000000     0.606450000000     0.723190000000     0.0402703  
H140     H      0.093250000000     0.588410000000     0.524140000000     0.0417897  
H141     H      0.067680000000     0.673170000000     0.746640000000     0.0391169  
H142     H      0.038320000000     0.619940000000     0.641440000000     0.0420746  
H143     H      0.156140000000     0.531070000000     0.530940000000     0.047076   
H144     H      0.206780000000     0.581410000000     0.845500000000     0.101049   
Mg1      Mg     0.022930000000     0.145590000000     0.716460000000     0.794643   
Mg2      Mg     0.163760000000     0.047480000000     0.666730000000     0.781729   
Mg3      Mg     0.171870000000     0.374100000000     0.718030000000     0.790289   
Mg4      Mg     0.285700000000     0.130110000000     0.773260000000     0.789323   
Mg5      Mg     0.051230000000     0.291640000000     0.610200000000     0.789612   
Mg6      Mg     0.315360000000     0.277950000000     0.671590000000     0.782765   
Mg7      Mg     0.206780000000     0.611640000000     0.353890000000     0.791189   
Mg8      Mg     0.148670000000     0.518810000000     0.204620000000     0.787452   
Mg9      Mg     0.223000000000     0.839320000000     0.195670000000     0.790194   
Mg10     Mg     0.254970000000     0.590900000000     0.073920000000     0.787718   
Mg11     Mg     0.116640000000     0.765950000000     0.324520000000     0.786717   
Mg12     Mg     0.169470000000     0.746850000000     0.044290000000     0.787054   
Mg13     Mg     0.689300000000     0.623310000000     0.584180000000     0.789028   
Mg14     Mg     0.708570000000     0.513030000000     0.731100000000     0.790441   
Mg15     Mg     0.642950000000     0.835260000000     0.762990000000     0.786235   
Mg16     Mg     0.579740000000     0.578070000000     0.840840000000     0.791065   
Mg17     Mg     0.771230000000     0.770290000000     0.650790000000     0.783596   
Mg18     Mg     0.662490000000     0.723450000000     0.908780000000     0.79044    
Mg19     Mg     0.635420000000     0.334230000000     0.248490000000     0.78789    
Mg20     Mg     0.548080000000     0.218440000000     0.137090000000     0.784827   
Mg21     Mg     0.834490000000     0.151200000000     0.283520000000     0.793424   
Mg22     Mg     0.581110000000     0.067300000000     0.233900000000     0.792264   
Mg23     Mg     0.800640000000     0.301820000000     0.188590000000     0.798452   
Mg24     Mg     0.747140000000     0.033950000000     0.177480000000     0.786      
N1       N      0.612920000000     0.874660000000     0.133790000000    -0.211127   
N2       N      0.754610000000     0.756500000000     0.423350000000    -0.209302   
N3       N      0.774450000000     0.489050000000     0.299100000000    -0.211797   
N4       N      0.578340000000     0.594560000000     0.065500000000    -0.21044    
N5       N      0.275400000000     0.378630000000     0.091550000000    -0.209366   
N6       N      0.005840000000     0.264920000000     0.216960000000    -0.212116   
N7       N      0.093380000000     0.978170000000     0.307050000000    -0.208787   
N8       N      0.375220000000     0.104400000000     0.206390000000    -0.210029   
N9       N      0.266150000000     0.938230000000     0.002040000000    -0.20965    
N10      N      0.568240000000     0.911660000000     0.958760000000    -0.208581   
N11      N      0.102830000000     0.426350000000     0.402770000000    -0.209982   
N12      N      0.789340000000     0.432920000000     0.540590000000    -0.206714   
N13      N      0.847720000000     0.258030000000     0.672900000000    -0.21041    
N14      N      0.555810000000     0.371090000000     0.794810000000    -0.209683   
N15      N      0.789160000000     0.980670000000     0.693960000000    -0.209378   
N16      N      0.488170000000     0.158890000000     0.703260000000    -0.210037   
N17      N      0.486130000000     0.423450000000     0.112640000000    -0.207161   
N18      N      0.351590000000     0.472830000000     0.771190000000    -0.208248   
N19      N      0.976040000000     0.953070000000     0.623930000000    -0.207848   
N20      N      0.904310000000     0.953140000000     0.310100000000    -0.208736   
N21      N      0.272330000000     0.921720000000     0.815610000000    -0.21038    
N22      N      0.172260000000     0.726380000000     0.539810000000    -0.213156   
N23      N      0.067380000000     0.500150000000     0.566610000000    -0.209581   
N24      N      0.196400000000     0.628740000000     0.859200000000    -0.210376   
O1       O      0.115970000000     0.107260000000     0.745530000000    -0.413452   
O2       O      0.270990000000     0.235180000000     0.763200000000    -0.411799   
O3       O      0.189080000000     0.122560000000     0.824110000000    -0.340986   
O4       O      0.124670000000     0.107880000000     0.580340000000    -0.338079   
O5       O      0.040340000000     0.398770000000     0.594240000000    -0.342619   
O6       O      0.206140000000     0.981280000000     0.749690000000    -0.333037   
O7       O      0.042750000000     0.235800000000     0.777980000000    -0.34019    
O8       O      0.245910000000     0.114670000000     0.671000000000    -0.408391   
O9       O      0.339040000000     0.371290000000     0.730130000000    -0.340403   
O10      O      0.129980000000     0.439910000000     0.635220000000    -0.335759   
O11      O      0.210760000000     0.313440000000     0.804830000000    -0.335835   
O12      O      0.386490000000     0.136670000000     0.731410000000    -0.343582   
O13      O      0.076800000000     0.981950000000     0.653340000000    -0.336332   
O14      O      0.948730000000     0.285370000000     0.648850000000    -0.342098   
O15      O      0.089720000000     0.308420000000     0.713090000000    -0.412847   
O16      O      0.221680000000     0.315270000000     0.640880000000    -0.412801   
O17      O      0.149190000000     0.298270000000     0.561860000000    -0.340315   
O18      O      0.411850000000     0.235230000000     0.696820000000    -0.3479     
O19      O      0.065810000000     0.186720000000     0.622800000000    -0.411216   
O20      O      0.295360000000     0.187860000000     0.608380000000    -0.336322   
O21      O      0.927960000000     0.187660000000     0.689470000000    -0.346608   
O22      O      0.297190000000     0.023020000000     0.786020000000    -0.350909   
O23      O      0.997450000000     0.051900000000     0.663500000000    -0.346853   
O24      O      0.257320000000     0.439290000000     0.730920000000    -0.344015   
O25      O      0.228470000000     0.571280000000     0.254540000000    -0.414122   
O26      O      0.253860000000     0.697360000000     0.089420000000    -0.407612   
O27      O      0.302700000000     0.579520000000     0.176040000000    -0.342351   
O28      O      0.073380000000     0.586400000000     0.246110000000    -0.339415   
O29      O      0.112160000000     0.874980000000     0.336170000000    -0.34552    
O30      O      0.219900000000     0.445340000000     0.160350000000    -0.335053   
O31      O      0.270830000000     0.696800000000     0.330970000000    -0.340795   
O32      O      0.158120000000     0.583900000000     0.116940000000    -0.411799   
O33      O      0.226460000000     0.838260000000     0.017370000000    -0.344223   
O34      O      0.151310000000     0.912220000000     0.239680000000    -0.335465   
O35      O      0.299220000000     0.771990000000     0.153540000000    -0.336631   
O36      O      0.216650000000     0.601180000000     0.966560000000    -0.342824   
O37      O      0.130720000000     0.456140000000     0.296770000000    -0.341207   
O38      O      0.150980000000     0.754340000000     0.432380000000    -0.347919   
O39      O      0.214460000000     0.774490000000     0.283120000000    -0.413911   
O40      O      0.145100000000     0.786190000000     0.143920000000    -0.413981   
O41      O      0.070320000000     0.776840000000     0.221530000000    -0.342309   
O42      O      0.190790000000     0.702750000000     0.942720000000    -0.345166   
O43      O      0.120260000000     0.660180000000     0.309850000000    -0.408071   
O44      O      0.104250000000     0.661370000000     0.065490000000    -0.338141   
O45      O      0.188290000000     0.656350000000     0.455180000000    -0.352234   
O46      O      0.257500000000     0.481910000000     0.062650000000    -0.341627   
O47      O      0.150690000000     0.521430000000     0.383010000000    -0.348723   
O48      O      0.238060000000     0.903180000000     0.105640000000    -0.345068   
O49      O      0.644300000000     0.574780000000     0.669910000000    -0.41606    
O50      O      0.588400000000     0.684590000000     0.839200000000    -0.41144    
O51      O      0.555540000000     0.580280000000     0.729200000000    -0.34318    
O52      O      0.793090000000     0.580370000000     0.716080000000    -0.335599   
O53      O      0.781010000000     0.879050000000     0.654950000000    -0.347567   
O54      O      0.627170000000     0.440250000000     0.748870000000    -0.335219   
O55      O      0.623300000000     0.709120000000     0.601190000000    -0.338324   
O56      O      0.683190000000     0.569120000000     0.821780000000    -0.413092   
O57      O      0.605270000000     0.813260000000     0.933760000000    -0.348119   
O58      O      0.721540000000     0.909320000000     0.741990000000    -0.337209   
O59      O      0.557980000000     0.768910000000     0.778910000000    -0.339101   
O60      O      0.591430000000     0.574640000000     0.955210000000    -0.342703   
O61      O      0.741580000000     0.458180000000     0.638690000000    -0.342415   
O62      O      0.754880000000     0.774560000000     0.535680000000    -0.340591   
O63      O      0.667560000000     0.778520000000     0.671930000000    -0.409307   
O64      O      0.708720000000     0.772460000000     0.822980000000    -0.410472   
O65      O      0.796860000000     0.767120000000     0.762360000000    -0.33857    
O66      O      0.615530000000     0.671700000000     0.995250000000    -0.347211   
O67      O      0.763690000000     0.663240000000     0.652490000000    -0.408793   
O68      O      0.727670000000     0.637090000000     0.893610000000    -0.340296   
O69      O      0.731820000000     0.676690000000     0.496870000000    -0.348011   
O70      O      0.570770000000     0.469690000000     0.838530000000    -0.343135   
O71      O      0.748620000000     0.532980000000     0.558850000000    -0.340659   
O72      O      0.613050000000     0.890710000000     0.856910000000    -0.34017    
O73      O      0.582060000000     0.243330000000     0.240070000000    -0.41342    
O74      O      0.683290000000     0.067730000000     0.259230000000    -0.412848   
O75      O      0.567800000000     0.155000000000     0.301010000000    -0.340266   
O76      O      0.634090000000     0.263560000000     0.086420000000    -0.33817    
O77      O      0.905300000000     0.299530000000     0.209070000000    -0.348353   
O78      O      0.456590000000     0.171370000000     0.179100000000    -0.339698   
O79      O      0.697080000000     0.287250000000     0.328810000000    -0.340416   
O80      O      0.601030000000     0.126120000000     0.142450000000    -0.410088   
O81      O      0.814810000000     0.984610000000     0.254880000000    -0.335109   
O82      O      0.923850000000     0.198850000000     0.241730000000    -0.345501   
O83      O      0.750000000000     0.104090000000     0.336450000000    -0.339522   
O84      O      0.590520000000     0.973580000000     0.173900000000    -0.348606   
O85      O      0.499800000000     0.315920000000     0.128090000000    -0.341484   
O86      O      0.792720000000     0.393600000000     0.249820000000    -0.347555   
O87      O      0.780820000000     0.242230000000     0.280120000000    -0.412901   
O88      O      0.799130000000     0.126150000000     0.181740000000    -0.415332   
O89      O      0.812860000000     0.214370000000     0.120510000000    -0.340319   
O90      O      0.691200000000     0.942330000000     0.166020000000    -0.343979   
O91      O      0.698740000000     0.302260000000     0.164660000000    -0.412467   
O92      O      0.684260000000     0.078130000000     0.095610000000    -0.337674   
O93      O      0.693070000000     0.425090000000     0.265620000000    -0.341179   
O94      O      0.476220000000     0.070610000000     0.212040000000    -0.347629   
O95      O      0.568580000000     0.385270000000     0.173190000000    -0.338576   
O96      O      0.886380000000     0.057090000000     0.287470000000    -0.349402   


