data_structure

_audit_creation_method RASPA-1.0
_audit_creation_date 2023-5-9
_audit_author_name 'Poobodin Mano'

_cell_length_a    28.3869
_cell_length_b    28.926
_cell_length_c    29.0494
_cell_angle_alpha 89.9988
_cell_angle_beta  90.0003
_cell_angle_gamma 89.9991
_cell_volume      23853

_symmetry_cell_setting          triclinic
_symmetry_space_group_name_Hall 'P 1'
_symmetry_space_group_name_H-M  'P 1'
_symmetry_Int_Tables_number     1

_symmetry_equiv_pos_as_xyz 'x,y,z'

loop_
_atom_site_label
_atom_site_type_symbol
_atom_site_fract_x
_atom_site_fract_y
_atom_site_fract_z
_atom_site_charge
C1       C      0.025250000000     0.100590000000     0.448690000000     0.356025   
C2       C      0.004280000000     0.865320000000     0.332940000000     0.378118   
C3       C      0.843540000000     0.981330000000     0.363050000000     0.381147   
C4       C      0.006870000000     0.005130000000     0.362860000000     0.35867    
C5       C      0.888870000000     0.151410000000     0.446510000000     0.370865   
C6       C      0.002680000000     0.136840000000     0.601700000000     0.37337    
C7       C      0.900290000000     0.998820000000     0.489560000000     0.362508   
C8       C      0.115550000000     0.003750000000     0.456780000000     0.354092   
C9       C      0.996290000000     0.998330000000     0.574940000000     0.352142   
C10      C      0.988900000000     0.894880000000     0.486480000000     0.356242   
C11      C      0.154820000000     0.010950000000     0.592250000000     0.368835   
C12      C      0.123630000000     0.848460000000     0.485320000000     0.377728   
C13      C      0.922400000000     0.456700000000     0.916490000000     0.358318   
C14      C      0.109940000000     0.635090000000     0.977050000000     0.387599   
C15      C      0.150950000000     0.481310000000     0.869030000000     0.380044   
C16      C      0.013380000000     0.554780000000     0.914180000000     0.35602    
C17      C      0.995030000000     0.363190000000     0.837580000000     0.382869   
C18      C      0.886450000000     0.324900000000     0.997010000000     0.375744   
C19      C      0.075850000000     0.409660000000     0.966690000000     0.36165    
C20      C      0.916780000000     0.551300000000     0.009780000000     0.356866   
C21      C      0.981770000000     0.408270000000     0.063240000000     0.355451   
C22      C      0.071440000000     0.508710000000     0.062910000000     0.361148   
C23      C      0.843780000000     0.481020000000     0.109110000000     0.38294    
C24      C      0.999570000000     0.604470000000     0.135630000000     0.371022   
C25      C      0.508170000000     0.600620000000     0.492840000000     0.356415   
C26      C      0.656300000000     0.375440000000     0.516450000000     0.368713   
C27      C      0.618770000000     0.463490000000     0.349080000000     0.373635   
C28      C      0.611830000000     0.507700000000     0.499220000000     0.355501   
C29      C      0.498060000000     0.617000000000     0.352950000000     0.380716   
C30      C      0.344850000000     0.604910000000     0.479520000000     0.378418   
C31      C      0.484320000000     0.465720000000     0.396900000000     0.354292   
C32      C      0.528530000000     0.520050000000     0.596940000000     0.358139   
C33      C      0.397340000000     0.475300000000     0.504170000000     0.359641   
C34      C      0.494700000000     0.388670000000     0.503960000000     0.355612   
C35      C      0.394090000000     0.528770000000     0.651920000000     0.372786   
C36      C      0.504510000000     0.366860000000     0.641000000000     0.372318   
C37      C      0.493870000000     0.880900000000     0.977060000000     0.358828   
C38      C      0.643330000000     0.102570000000     0.984770000000     0.382009   
C39      C      0.602350000000     0.997140000000     0.143390000000     0.380323   
C40      C      0.599190000000     0.969720000000     0.988290000000     0.358861   
C41      C      0.494700000000     0.838620000000     0.112510000000     0.382789   
C42      C      0.333360000000     0.873660000000     0.003020000000     0.377335   
C43      C      0.469530000000     0.995620000000     0.093320000000     0.364986   
C44      C      0.506690000000     0.966130000000     0.886030000000     0.351989   
C45      C      0.385890000000     0.004870000000     0.992990000000     0.357831   
C46      C      0.483290000000     0.092860000000     0.991870000000     0.353229   
C47      C      0.371350000000     0.970040000000     0.838270000000     0.368014   
C48      C      0.494920000000     0.120740000000     0.856200000000     0.37217    
C49      C      0.452130000000     0.779980000000     0.159720000000    -0.0250492  
C50      C      0.539420000000     0.665930000000     0.295450000000    -0.0258524  
C51      C      0.453910000000     0.670680000000     0.301050000000    -0.0252032  
C52      C      0.471560000000     0.698890000000     0.261890000000     0.0133114  
C53      C      0.520290000000     0.697220000000     0.259800000000     0.0148241  
C54      C      0.545660000000     0.722840000000     0.227310000000    -0.0675534  
C55      C      0.537920000000     0.781830000000     0.161060000000    -0.0260644  
C56      C      0.445360000000     0.724570000000     0.229850000000    -0.0660779  
C57      C      0.519570000000     0.749360000000     0.196120000000     0.0148332  
C58      C      0.470770000000     0.749350000000     0.196510000000     0.0131317  
C59      C      0.500810000000     0.338330000000     0.721520000000    -0.0264922  
C60      C      0.491830000000     0.150240000000     0.776230000000    -0.0266767  
C61      C      0.508940000000     0.203970000000     0.838710000000    -0.0262621  
C62      C      0.505920000000     0.228550000000     0.793900000000     0.0145323  
C63      C      0.500330000000     0.197330000000     0.758130000000     0.0147825  
C64      C      0.502090000000     0.211450000000     0.712020000000    -0.0672532  
C65      C      0.510410000000     0.282990000000     0.658890000000    -0.026425   
C66      C      0.506520000000     0.276300000000     0.785750000000    -0.0668776  
C67      C      0.506160000000     0.258980000000     0.703830000000     0.0149378  
C68      C      0.504870000000     0.290600000000     0.739650000000     0.0143543  
C69      C      0.713670000000     0.140500000000     0.948870000000    -0.0255972  
C70      C      0.825570000000     0.277450000000     0.037670000000    -0.0262118  
C71      C      0.853370000000     0.254120000000     0.961790000000    -0.0260435  
C72      C      0.812370000000     0.225900000000     0.975880000000     0.013933   
C73      C      0.798430000000     0.237210000000     0.020170000000     0.0144271  
C74      C      0.761520000000     0.213700000000     0.041940000000    -0.066961   
C75      C      0.697870000000     0.150830000000     0.030690000000    -0.0255427  
C76      C      0.787160000000     0.193940000000     0.949190000000    -0.0667275  
C77      C      0.737870000000     0.180040000000     0.016040000000     0.0144115  
C78      C      0.748750000000     0.172060000000     0.970230000000     0.0143704  
C79      C      0.126490000000     0.720090000000     0.970560000000    -0.0253325  
C80      C      0.306990000000     0.793450000000     0.008470000000    -0.0262768  
C81      C      0.250710000000     0.851330000000     0.981990000000    -0.0262443  
C82      C      0.229600000000     0.804270000000     0.981230000000     0.013533   
C83      C      0.263350000000     0.771470000000     0.992220000000     0.0153746  
C84      C      0.254500000000     0.724240000000     0.988360000000    -0.0685446  
C85      C      0.190680000000     0.664130000000     0.970700000000    -0.025528   
C86      C      0.182700000000     0.791340000000     0.972750000000    -0.0662294  
C87      C      0.208770000000     0.711420000000     0.976460000000     0.0158228  
C88      C      0.172970000000     0.743720000000     0.972300000000     0.0134679  
C89      C      0.237390000000     0.482580000000     0.851810000000    -0.02632    
C90      C      0.312570000000     0.539000000000     0.678980000000    -0.0268013  
C91      C      0.371300000000     0.511670000000     0.733660000000    -0.0273754  
C92      C      0.323140000000     0.509060000000     0.753750000000     0.0138961  
C93      C      0.289730000000     0.521090000000     0.721170000000     0.0139665  
C94      C      0.241530000000     0.514390000000     0.729070000000    -0.0671904  
C95      C      0.180410000000     0.486910000000     0.789300000000    -0.0261523  
C96      C      0.309840000000     0.495630000000     0.798370000000    -0.0666086  
C97      C      0.228420000000     0.498060000000     0.772620000000     0.0148356  
C98      C      0.261330000000     0.491900000000     0.807240000000     0.0142353  
C99      C      0.758380000000     0.478650000000     0.132200000000    -0.0256776  
C100     C      0.698050000000     0.451070000000     0.317190000000    -0.0265813  
C101     C      0.635020000000     0.473070000000     0.264630000000    -0.0265612  
C102     C      0.681000000000     0.470470000000     0.240070000000     0.0132908  
C103     C      0.717010000000     0.461920000000     0.271080000000     0.0149207  
C104     C      0.764320000000     0.465530000000     0.258290000000    -0.0680623  
C105     C      0.820030000000     0.482590000000     0.190420000000    -0.0260872  
C106     C      0.690380000000     0.476250000000     0.192860000000    -0.066219   
C107     C      0.773650000000     0.474610000000     0.211930000000     0.0153646  
C108     C      0.737980000000     0.476470000000     0.179450000000     0.0135037  
C109     C      0.806350000000     0.177420000000     0.451400000000    -0.0266885  
C110     C      0.740460000000     0.357220000000     0.498770000000    -0.0277035  
C111     C      0.684620000000     0.295000000000     0.513140000000    -0.0269382  
C112     C      0.729840000000     0.276460000000     0.495340000000     0.0140905  
C113     C      0.762910000000     0.311380000000     0.491160000000     0.0145729  
C114     C      0.810160000000     0.301490000000     0.480560000000    -0.0669654  
C115     C      0.868570000000     0.234260000000     0.462590000000    -0.027441   
C116     C      0.740290000000     0.230900000000     0.482410000000    -0.0671563  
C117     C      0.821390000000     0.255170000000     0.470930000000     0.0141374  
C118     C      0.786660000000     0.221660000000     0.468550000000     0.0136182  
C119     C      0.158140000000     0.780860000000     0.444540000000    -0.025671   
C120     C      0.285170000000     0.649920000000     0.522830000000    -0.0255767  
C121     C      0.280190000000     0.648180000000     0.439180000000    -0.025948   
C122     C      0.246190000000     0.682120000000     0.458780000000     0.0138276  
C123     C      0.250160000000     0.683980000000     0.506260000000     0.013931   
C124     C      0.226050000000     0.717220000000     0.532370000000    -0.0668068  
C125     C      0.170670000000     0.788390000000     0.527150000000    -0.0258395  
C126     C      0.215760000000     0.711980000000     0.435010000000    -0.0663613  
C127     C      0.196600000000     0.747820000000     0.508490000000     0.0143412  
C128     C      0.190670000000     0.744460000000     0.461280000000     0.0137423  
C129     C      0.356840000000     0.976480000000     0.753280000000    -0.0268506  
C130     C      0.178520000000     0.018530000000     0.673530000000    -0.0271193  
C131     C      0.236600000000     0.990450000000     0.618490000000    -0.0269144  
C132     C      0.256540000000     0.991440000000     0.666010000000     0.0139316  
C133     C      0.221910000000     0.003360000000     0.697410000000     0.0145914  
C134     C      0.229400000000     0.999640000000     0.744910000000    -0.0673948  
C135     C      0.290900000000     0.977900000000     0.806940000000    -0.0269642  
C136     C      0.302890000000     0.982150000000     0.680510000000    -0.066221   
C137     C      0.274650000000     0.986950000000     0.759330000000     0.0147519  
C138     C      0.311290000000     0.981910000000     0.728270000000     0.0138761  
C139     C      0.648010000000     0.036740000000     0.205760000000    -0.0256443  
C140     C      0.776210000000     0.941540000000     0.323430000000    -0.0254737  
C141     C      0.777400000000     0.025530000000     0.329290000000    -0.0253052  
C142     C      0.738860000000     0.010330000000     0.298720000000     0.01402    
C143     C      0.737140000000     0.962520000000     0.296360000000     0.0140512  
C144     C      0.704420000000     0.940010000000     0.268060000000    -0.0664952  
C145     C      0.639980000000     0.952910000000     0.206530000000    -0.0253693  
C146     C      0.709920000000     0.038270000000     0.271250000000    -0.0668245  
C147     C      0.674610000000     0.968000000000     0.241450000000     0.0138955  
C148     C      0.678100000000     0.015770000000     0.242070000000     0.0142751  
C149     C      0.044560000000     0.815010000000     0.275120000000    -0.0264383  
C150     C      0.965510000000     0.649520000000     0.200590000000    -0.026366   
C151     C      0.043670000000     0.669330000000     0.172230000000    -0.0272866  
C152     C      0.027130000000     0.704100000000     0.206070000000     0.0145568  
C153     C      0.981610000000     0.694340000000     0.220150000000     0.0134058  
C154     C      0.956120000000     0.725510000000     0.247580000000    -0.0663985  
C155     C      0.960850000000     0.804400000000     0.290120000000    -0.0258375  
C156     C      0.051270000000     0.743230000000     0.222050000000    -0.067318   
C157     C      0.979600000000     0.765770000000     0.261870000000     0.013672   
C158     C      0.026510000000     0.773270000000     0.251180000000     0.0145699  
C159     C      0.992450000000     0.217820000000     0.627220000000    -0.0265462  
C160     C      0.992200000000     0.281780000000     0.811930000000    -0.0254873  
C161     C      0.993030000000     0.342700000000     0.753960000000    -0.025771   
C162     C      0.994170000000     0.296260000000     0.732210000000     0.0149743  
C163     C      0.997300000000     0.261890000000     0.765280000000     0.0141002  
C164     C      0.004840000000     0.215500000000     0.753270000000    -0.066702   
C165     C      0.014540000000     0.159540000000     0.683890000000    -0.0258855  
C166     C      0.992380000000     0.285460000000     0.685280000000    -0.0673085  
C167     C      0.005960000000     0.205060000000     0.706180000000     0.0139833  
C168     C      0.996980000000     0.238740000000     0.673390000000     0.0146837  
H1       H      0.887230000000     0.000300000000     0.524480000000    -0.060797   
H2       H      0.989480000000     0.967490000000     0.594870000000    -0.057529   
H3       H      0.133230000000     0.004850000000     0.423830000000    -0.0617512  
H4       H      0.954290000000     0.880280000000     0.491980000000    -0.0646033  
H5       H      0.009530000000     0.038040000000     0.345430000000    -0.0636352  
H6       H      0.060180000000     0.113610000000     0.441470000000    -0.0566709  
H7       H      0.077400000000     0.377220000000     0.985110000000    -0.0661352  
H8       H      0.001870000000     0.407660000000     0.094850000000    -0.0611597  
H9       H      0.913390000000     0.582990000000     0.990340000000    -0.0613992  
H10      H      0.105740000000     0.492700000000     0.065600000000    -0.0657238  
H11      H      0.993860000000     0.554170000000     0.882240000000    -0.0637901  
H12      H      0.888400000000     0.473530000000     0.915850000000    -0.0619332  
H13      H      0.449900000000     0.457600000000     0.383160000000    -0.0616703  
H14      H      0.383210000000     0.440940000000     0.509020000000    -0.0611924  
H15      H      0.564210000000     0.527300000000     0.607740000000    -0.0575329  
H16      H      0.486990000000     0.367390000000     0.474310000000    -0.0575037  
H17      H      0.628800000000     0.541100000000     0.497190000000    -0.0592782  
H18      H      0.513340000000     0.621600000000     0.523220000000    -0.0628814  
H19      H      0.434000000000     0.998800000000     0.106320000000    -0.0663301  
H20      H      0.371980000000     0.039590000000     0.995050000000    -0.0573605  
H21      H      0.540670000000     0.958110000000     0.871250000000    -0.0566317  
H22      H      0.476970000000     0.113020000000     0.022590000000    -0.0616406  
H23      H      0.614710000000     0.935590000000     0.988420000000    -0.0664147  
H24      H      0.497290000000     0.865550000000     0.943300000000    -0.0592235  
H25      H      0.429590000000     0.643340000000     0.288460000000     0.0412103  
H26      H      0.557960000000     0.636390000000     0.278980000000     0.0456099  
H27      H      0.583790000000     0.722500000000     0.226630000000     0.0439695  
H28      H      0.407260000000     0.725580000000     0.231060000000     0.0438448  
H29      H      0.433450000000     0.759470000000     0.133020000000     0.0440822  
H30      H      0.559010000000     0.809400000000     0.178000000000     0.04575    
H31      H      0.436640000000     0.693020000000     0.327200000000     0.0448525  
H32      H      0.563080000000     0.685060000000     0.319250000000     0.0420705  
H33      H      0.558950000000     0.763160000000     0.134710000000     0.0416748  
H34      H      0.428770000000     0.806840000000     0.174830000000     0.0414666  
H35      H      0.482070000000     0.217350000000     0.863140000000     0.0417392  
H36      H      0.455230000000     0.139040000000     0.768400000000     0.046745   
H37      H      0.499890000000     0.186820000000     0.684050000000     0.0447442  
H38      H      0.507690000000     0.300980000000     0.813730000000     0.0446398  
H39      H      0.465810000000     0.353170000000     0.730250000000     0.0460346  
H40      H      0.545610000000     0.276530000000     0.643440000000     0.0467982  
H41      H      0.545060000000     0.206760000000     0.853200000000     0.0462274  
H42      H      0.518120000000     0.125510000000     0.762160000000     0.0395037  
H43      H      0.481580000000     0.272320000000     0.635280000000     0.0419984  
H44      H      0.529930000000     0.360310000000     0.734730000000     0.0394976  
H45      H      0.845570000000     0.272660000000     0.929120000000     0.0432781  
H46      H      0.801670000000     0.307370000000     0.043320000000     0.0458434  
H47      H      0.751060000000     0.221850000000     0.076850000000     0.0444495  
H48      H      0.796330000000     0.187230000000     0.913640000000     0.0445304  
H49      H      0.693420000000     0.158950000000     0.921760000000     0.0456936  
H50      H      0.709700000000     0.124620000000     0.056180000000     0.0457726  
H51      H      0.885340000000     0.232200000000     0.958470000000     0.0444396  
H52      H      0.844970000000     0.268270000000     0.069600000000     0.0427222  
H53      H      0.669010000000     0.172630000000     0.044800000000     0.0403491  
H54      H      0.731150000000     0.109100000000     0.934970000000     0.0416145  
H55      H      0.230770000000     0.874560000000     0.005400000000     0.0410493  
H56      H      0.312280000000     0.786720000000     0.045790000000     0.046199   
H57      H      0.281550000000     0.698760000000     0.995170000000     0.0442134  
H58      H      0.155280000000     0.816830000000     0.967650000000     0.0444286  
H59      H      0.105540000000     0.728690000000     0.001730000000     0.0456454  
H60      H      0.202770000000     0.649200000000     0.937480000000     0.0454222  
H61      H      0.252610000000     0.865650000000     0.946540000000     0.0462267  
H62      H      0.337550000000     0.781240000000     0.987820000000     0.0388117  
H63      H      0.201520000000     0.642180000000     0.000330000000     0.0394798  
H64      H      0.107220000000     0.729180000000     0.938540000000     0.0405388  
H65      H      0.387100000000     0.476540000000     0.732070000000     0.0467633  
H66      H      0.299780000000     0.519610000000     0.648350000000     0.0406541  
H67      H      0.215570000000     0.521510000000     0.702700000000     0.0441234  
H68      H      0.335800000000     0.488480000000     0.824730000000     0.0443706  
H69      H      0.249310000000     0.449170000000     0.866640000000     0.0408742  
H70      H      0.156230000000     0.516450000000     0.782780000000     0.039822   
H71      H      0.393860000000     0.535780000000     0.753640000000     0.0421812  
H72      H      0.306130000000     0.576700000000     0.675200000000     0.0449061  
H73      H      0.167190000000     0.454690000000     0.772950000000     0.0448742  
H74      H      0.243750000000     0.511660000000     0.876050000000     0.0463175  
H75      H      0.609530000000     0.447830000000     0.250130000000     0.0416822  
H76      H      0.704150000000     0.414110000000     0.325790000000     0.0457998  
H77      H      0.792430000000     0.461670000000     0.283180000000     0.0441263  
H78      H      0.662280000000     0.480530000000     0.168050000000     0.04444    
H79      H      0.750680000000     0.446190000000     0.113170000000     0.0455677  
H80      H      0.834710000000     0.516440000000     0.201440000000     0.044983   
H81      H      0.620930000000     0.508900000000     0.263230000000     0.0461141  
H82      H      0.713900000000     0.474300000000     0.343480000000     0.0403426  
H83      H      0.844470000000     0.453740000000     0.198860000000     0.0391502  
H84      H      0.745110000000     0.509430000000     0.113350000000     0.0403541  
H85      H      0.677700000000     0.282070000000     0.548520000000     0.0454312  
H86      H      0.759020000000     0.376720000000     0.526290000000     0.0409831  
H87      H      0.836710000000     0.328340000000     0.479840000000     0.0443693  
H88      H      0.713730000000     0.204060000000     0.483090000000     0.0438966  
H89      H      0.798190000000     0.148980000000     0.475910000000     0.0378276  
H90      H      0.886910000000     0.251990000000     0.433800000000     0.0414421  
H91      H      0.655330000000     0.285900000000     0.489370000000     0.036583   
H92      H      0.739690000000     0.377090000000     0.466020000000     0.0472615  
H93      H      0.889910000000     0.235280000000     0.494670000000     0.0467664  
H94      H      0.792720000000     0.169580000000     0.416400000000     0.0449627  
H95      H      0.305300000000     0.665970000000     0.415750000000     0.0454513  
H96      H      0.313050000000     0.667740000000     0.543050000000     0.0425004  
H97      H      0.231010000000     0.719960000000     0.569210000000     0.0443125  
H98      H      0.212750000000     0.710880000000     0.397880000000     0.0440138  
H99      H      0.175860000000     0.802590000000     0.418140000000     0.0416687  
H100     H      0.143690000000     0.777220000000     0.552530000000     0.0421652  
H101     H      0.261340000000     0.619760000000     0.421230000000     0.0419604  
H102     H      0.267750000000     0.622490000000     0.543500000000     0.0443714  
H103     H      0.195720000000     0.813560000000     0.542550000000     0.0454006  
H104     H      0.125290000000     0.765160000000     0.430800000000     0.0454292  
H105     H      0.235400000000     0.954370000000     0.605390000000     0.0462924  
H106     H      0.147780000000     0.997970000000     0.685520000000     0.0390428  
H107     H      0.201440000000     0.006230000000     0.769390000000     0.0441196  
H108     H      0.330810000000     0.975440000000     0.656040000000     0.0448465  
H109     H      0.375200000000     0.944400000000     0.742290000000     0.041303   
H110     H      0.282530000000     0.007780000000     0.829590000000     0.0379693  
H111     H      0.257070000000     0.013270000000     0.595130000000     0.0416231  
H112     H      0.172660000000     0.056150000000     0.678790000000     0.046453   
H113     H      0.275100000000     0.945420000000     0.820340000000     0.0462189  
H114     H      0.379360000000     0.007470000000     0.748060000000     0.0465134  
H115     H      0.763020000000     0.042760000000     0.360460000000     0.0449506  
H116     H      0.762140000000     0.920020000000     0.351970000000     0.0418573  
H117     H      0.703400000000     0.902690000000     0.265520000000     0.0439436  
H118     H      0.713290000000     0.075550000000     0.271310000000     0.0441515  
H119     H      0.620430000000     0.059110000000     0.221260000000     0.0418921  
H120     H      0.656890000000     0.928750000000     0.181740000000     0.0422084  
H121     H      0.801810000000     0.048770000000     0.310250000000     0.0428683  
H122     H      0.799700000000     0.921150000000     0.300510000000     0.0451976  
H123     H      0.608860000000     0.936780000000     0.223280000000     0.0448605  
H124     H      0.670090000000     0.056270000000     0.180840000000     0.0451623  
H125     H      0.075760000000     0.651440000000     0.184950000000     0.0425676  
H126     H      0.961510000000     0.623180000000     0.228150000000     0.0441186  
H127     H      0.919910000000     0.718860000000     0.257190000000     0.0439875  
H128     H      0.087400000000     0.750020000000     0.212220000000     0.0443869  
H129     H      0.072620000000     0.805040000000     0.299910000000     0.0458991  
H130     H      0.934390000000     0.824610000000     0.270390000000     0.0448037  
H131     H      0.050180000000     0.686300000000     0.138480000000     0.047085   
H132     H      0.932070000000     0.654370000000     0.181240000000     0.0423615  
H133     H      0.945680000000     0.790850000000     0.322730000000     0.0405442  
H134     H      0.057560000000     0.840950000000     0.249940000000     0.0414712  
H135     H      0.960950000000     0.362020000000     0.743480000000     0.0409567  
H136     H      0.958600000000     0.270340000000     0.827920000000     0.044835   
H137     H      0.009370000000     0.188960000000     0.779160000000     0.0441134  
H138     H      0.987430000000     0.311950000000     0.659400000000     0.0444201  
H139     H      0.955690000000     0.221470000000     0.614520000000     0.046708   
H140     H      0.051930000000     0.148960000000     0.688090000000     0.0450253  
H141     H      0.025620000000     0.362180000000     0.745370000000     0.0460836  
H142     H      0.022980000000     0.272280000000     0.833640000000     0.0395875  
H143     H      0.990080000000     0.132970000000     0.697750000000     0.0420719  
H144     H      0.018070000000     0.233570000000     0.602890000000     0.0403251  
Mg1      Mg     0.081760000000     0.940450000000     0.538450000000     0.779099   
Mg2      Mg     0.070920000000     0.067760000000     0.541850000000     0.782244   
Mg3      Mg     0.934810000000     0.927060000000     0.405970000000     0.783719   
Mg4      Mg     0.946020000000     0.088780000000     0.520640000000     0.78412    
Mg5      Mg     0.068620000000     0.920980000000     0.410830000000     0.791961   
Mg6      Mg     0.926350000000     0.056880000000     0.400190000000     0.790589   
Mg7      Mg     0.960790000000     0.503780000000     0.100240000000     0.789684   
Mg8      Mg     0.886700000000     0.440130000000     0.012090000000     0.780728   
Mg9      Mg     0.108410000000     0.518630000000     0.968100000000     0.799087   
Mg10     Mg     0.982360000000     0.370430000000     0.953620000000     0.795895   
Mg11     Mg     0.012600000000     0.592840000000     0.021530000000     0.789176   
Mg12     Mg     0.032320000000     0.463420000000     0.876270000000     0.78685    
Mg13     Mg     0.447230000000     0.447790000000     0.592620000000     0.78121    
Mg14     Mg     0.430010000000     0.568520000000     0.553130000000     0.790565   
Mg15     Mg     0.581150000000     0.421510000000     0.445120000000     0.785508   
Mg16     Mg     0.430700000000     0.552120000000     0.424820000000     0.781955   
Mg17     Mg     0.571630000000     0.425010000000     0.569460000000     0.78155    
Mg18     Mg     0.562370000000     0.542140000000     0.410550000000     0.789024   
Mg19     Mg     0.432260000000     0.040930000000     0.901910000000     0.782583   
Mg20     Mg     0.407020000000     0.921060000000     0.930470000000     0.779567   
Mg21     Mg     0.560690000000     0.053610000000     0.053220000000     0.792912   
Mg22     Mg     0.422930000000     0.913790000000     0.056720000000     0.793738   
Mg23     Mg     0.559410000000     0.053860000000     0.923260000000     0.783275   
Mg24     Mg     0.553930000000     0.923990000000     0.065860000000     0.797998   
N1       N      0.494930000000     0.800960000000     0.140510000000    -0.163209   
N2       N      0.497120000000     0.650130000000     0.319780000000    -0.162827   
N3       N      0.505290000000     0.331670000000     0.671710000000    -0.163039   
N4       N      0.498390000000     0.156130000000     0.825900000000    -0.162838   
N5       N      0.683090000000     0.128470000000     0.987730000000    -0.163103   
N6       N      0.858590000000     0.286880000000     0.000030000000    -0.162614   
N7       N      0.139650000000     0.671030000000     0.970310000000    -0.164511   
N8       N      0.298000000000     0.842540000000     0.000290000000    -0.164612   
N9       N      0.187450000000     0.479950000000     0.838820000000    -0.161959   
N10      N      0.362730000000     0.530000000000     0.687250000000    -0.162605   
N11      N      0.809080000000     0.483120000000     0.141150000000    -0.163008   
N12      N      0.647630000000     0.460350000000     0.312000000000    -0.162867   
N13      N      0.857180000000     0.186430000000     0.449850000000    -0.162772   
N14      N      0.692620000000     0.345070000000     0.513650000000    -0.161839   
N15      N      0.148120000000     0.808010000000     0.486140000000    -0.162075   
N16      N      0.304590000000     0.630520000000     0.480120000000    -0.16216    
N17      N      0.341940000000     0.972830000000     0.801520000000    -0.16208    
N18      N      0.188810000000     0.008700000000     0.625070000000    -0.161642   
N19      N      0.626640000000     0.996280000000     0.183710000000    -0.162759   
N20      N      0.800950000000     0.982080000000     0.341660000000    -0.162973   
N21      N      0.002830000000     0.832620000000     0.299300000000    -0.161779   
N22      N      0.004040000000     0.636820000000     0.169350000000    -0.161304   
N23      N      0.004030000000     0.169130000000     0.635470000000    -0.163535   
N24      N      0.991350000000     0.331730000000     0.803170000000    -0.163227   
O1       O      0.034890000000     0.001670000000     0.553100000000    -0.408819   
O2       O      0.920170000000     0.034190000000     0.472720000000    -0.416734   
O3       O      0.963800000000     0.028650000000     0.571470000000    -0.330346   
O4       O      0.116100000000     0.039820000000     0.481830000000    -0.333982   
O5       O      0.043650000000     0.874100000000     0.352410000000    -0.337075   
O6       O      0.029930000000     0.101780000000     0.603330000000    -0.329663   
O7       O      0.015500000000     0.899880000000     0.521150000000    -0.33926    
O8       O      0.015970000000     0.085910000000     0.488820000000    -0.411328   
O9       O      0.860190000000     0.019680000000     0.377240000000    -0.342966   
O10      O      0.965580000000     0.883550000000     0.346480000000    -0.337112   
O11      O      0.900310000000     0.960020000000     0.469240000000    -0.339877   
O12      O      0.924340000000     0.150550000000     0.473340000000    -0.329297   
O13      O      0.124990000000     0.043790000000     0.594260000000    -0.337737   
O14      O      0.102590000000     0.859710000000     0.448100000000    -0.340762   
O15      O      0.998440000000     0.911980000000     0.447380000000    -0.408448   
O16      O      0.968620000000     0.995040000000     0.382950000000    -0.410106   
O17      O      0.044260000000     0.981990000000     0.368340000000    -0.342707   
O18      O      0.879850000000     0.117540000000     0.420130000000    -0.340465   
O19      O      0.091090000000     0.968520000000     0.466940000000    -0.408462   
O20      O      0.995860000000     0.097280000000     0.415650000000    -0.332602   
O21      O      0.123930000000     0.874890000000     0.520670000000    -0.334208   
O22      O      0.974310000000     0.142760000000     0.568550000000    -0.345234   
O23      O      0.150840000000     0.978140000000     0.562970000000    -0.328455   
O24      O      0.866910000000     0.943630000000     0.365840000000    -0.335221   
O25      O      0.952110000000     0.440440000000     0.057170000000    -0.406271   
O26      O      0.042210000000     0.416370000000     0.938910000000    -0.413424   
O27      O      0.993230000000     0.380280000000     0.031480000000    -0.338026   
O28      O      0.889530000000     0.518050000000     0.999680000000    -0.338243   
O29      O      0.072530000000     0.641040000000     0.000650000000    -0.340259   
O30      O      0.876890000000     0.360490000000     0.021570000000    -0.332497   
O31      O      0.040760000000     0.498920000000     0.093020000000    -0.341756   
O32      O      0.932110000000     0.430180000000     0.949870000000    -0.410924   
O33      O      0.111040000000     0.465140000000     0.856340000000    -0.338233   
O34      O      0.123170000000     0.595310000000     0.963320000000    -0.347098   
O35      O      0.103100000000     0.441700000000     0.979400000000    -0.345435   
O36      O      0.980020000000     0.351820000000     0.877410000000    -0.342831   
O37      O      0.838460000000     0.455560000000     0.073570000000    -0.336419   
O38      O      0.023600000000     0.609560000000     0.098720000000    -0.335005   
O39      O      0.061540000000     0.531540000000     0.027050000000    -0.413855   
O40      O      0.044110000000     0.523650000000     0.921080000000    -0.409455   
O41      O      0.999680000000     0.582360000000     0.945290000000    -0.340015   
O42      O      0.016780000000     0.401170000000     0.830240000000    -0.337511   
O43      O      0.951790000000     0.546660000000     0.036520000000    -0.411798   
O44      O      0.952960000000     0.469360000000     0.887320000000    -0.340444   
O45      O      0.969780000000     0.571640000000     0.140630000000    -0.333439   
O46      O      0.919690000000     0.324680000000     0.967510000000    -0.341889   
O47      O      0.882940000000     0.500450000000     0.118590000000    -0.343664   
O48      O      0.156410000000     0.502430000000     0.907260000000    -0.337998   
O49      O      0.419940000000     0.493980000000     0.536860000000    -0.412981   
O50      O      0.492250000000     0.506450000000     0.411150000000    -0.408325   
O51      O      0.395790000000     0.492740000000     0.464140000000    -0.339655   
O52      O      0.500450000000     0.553870000000     0.591030000000    -0.33514    
O53      O      0.625890000000     0.370730000000     0.548240000000    -0.337378   
O54      O      0.362370000000     0.592560000000     0.518060000000    -0.340632   
O55      O      0.462840000000     0.394100000000     0.534490000000    -0.330673   
O56      O      0.469490000000     0.579180000000     0.488190000000    -0.40885    
O57      O      0.586800000000     0.494530000000     0.350000000000    -0.332348   
O58      O      0.650850000000     0.405420000000     0.484800000000    -0.329924   
O59      O      0.513650000000     0.432910000000     0.402370000000    -0.334895   
O60      O      0.460640000000     0.608360000000     0.375980000000    -0.336827   
O61      O      0.387110000000     0.554850000000     0.617330000000    -0.340895   
O62      O      0.531080000000     0.365180000000     0.605680000000    -0.330786   
O63      O      0.533740000000     0.409990000000     0.505740000000    -0.412991   
O64      O      0.586810000000     0.494060000000     0.465640000000    -0.414235   
O65      O      0.614990000000     0.484730000000     0.536560000000    -0.331339   
O66      O      0.536180000000     0.594500000000     0.359050000000    -0.342035   
O67      O      0.517480000000     0.478940000000     0.586290000000    -0.412671   
O68      O      0.543440000000     0.593230000000     0.467140000000    -0.339332   
O69      O      0.476970000000     0.400730000000     0.648010000000    -0.340728   
O70      O      0.365890000000     0.596980000000     0.441400000000    -0.334621   
O71      O      0.426550000000     0.498270000000     0.651850000000    -0.330522   
O72      O      0.627000000000     0.437720000000     0.383650000000    -0.341613   
O73      O      0.406170000000     0.991980000000     0.956290000000    -0.413472   
O74      O      0.482520000000     0.957250000000     0.076680000000    -0.418336   
O75      O      0.384930000000     0.979640000000     0.028950000000    -0.333062   
O76      O      0.475280000000     0.934530000000     0.887290000000    -0.328961   
O77      O      0.622900000000     0.097510000000     0.945850000000    -0.335642   
O78      O      0.338310000000     0.903740000000     0.971300000000    -0.330787   
O79      O      0.450910000000     0.090640000000     0.961630000000    -0.333122   
O80      O      0.455120000000     0.899720000000     0.988010000000    -0.411753   
O81      O      0.584960000000     0.959200000000     0.128820000000    -0.343328   
O82      O      0.626160000000     0.086250000000     0.021960000000    -0.344445   
O83      O      0.493600000000     0.032100000000     0.089010000000    -0.345483   
O84      O      0.456130000000     0.851070000000     0.093540000000    -0.338133   
O85      O      0.359300000000     0.945470000000     0.872550000000    -0.339236   
O86      O      0.523590000000     0.118550000000     0.890040000000    -0.331606   
O87      O      0.520610000000     0.068890000000     0.989200000000    -0.406871   
O88      O      0.575850000000     0.982610000000     0.023220000000    -0.413719   
O89      O      0.598970000000     0.991860000000     0.950730000000    -0.341005   
O90      O      0.532470000000     0.862000000000     0.108160000000    -0.343281   
O91      O      0.500290000000     0.005580000000     0.904160000000    -0.409865   
O92      O      0.530650000000     0.884630000000     0.001560000000    -0.340715   
O93      O      0.463640000000     0.090000000000     0.849430000000    -0.340378   
O94      O      0.364210000000     0.868000000000     0.034110000000    -0.347137   
O95      O      0.408460000000     0.994830000000     0.839530000000    -0.327229   
O96      O      0.600080000000     0.034590000000     0.119980000000    -0.334771   


