data_structure

_audit_creation_method RASPA-1.0
_audit_creation_date 2023-5-9
_audit_author_name 'Poobodin Mano'

_cell_length_a    20.4517
_cell_length_b    19.9266
_cell_length_c    20.906
_cell_angle_alpha 89.9989
_cell_angle_beta  90.0004
_cell_angle_gamma 89.9992
_cell_volume      8519.88

_symmetry_cell_setting          triclinic
_symmetry_space_group_name_Hall 'P 1'
_symmetry_space_group_name_H-M  'P 1'
_symmetry_Int_Tables_number     1

_symmetry_equiv_pos_as_xyz 'x,y,z'

loop_
_atom_site_label
_atom_site_type_symbol
_atom_site_fract_x
_atom_site_fract_y
_atom_site_fract_z
_atom_site_charge
C1       C      0.123090000000     0.005410000000     0.390380000000     0.359356   
C2       C      0.017910000000     0.235560000000     0.665200000000     0.381658   
C3       C      0.193340000000     0.013460000000     0.693620000000     0.385838   
C4       C      0.109360000000     0.136350000000     0.521630000000     0.354281   
C5       C      0.241840000000     0.866330000000     0.475220000000     0.383843   
C6       C      0.010870000000     0.814940000000     0.326520000000     0.388359   
C7       C      0.057870000000     0.914100000000     0.592520000000     0.357029   
C8       C      0.972680000000     0.132770000000     0.403180000000     0.355754   
C9       C      0.922070000000     0.906190000000     0.467070000000     0.359153   
C10      C      0.915570000000     0.037300000000     0.605850000000     0.359852   
C11      C      0.839140000000     0.024360000000     0.295670000000     0.39708    
C12      C      0.786060000000     0.168120000000     0.523580000000     0.38442    
C13      C      0.887240000000     0.498850000000     0.898710000000     0.35184    
C14      C      0.143040000000     0.768940000000     0.974030000000     0.40229    
C15      C      0.194020000000     0.556160000000     0.803850000000     0.384231   
C16      C      0.004370000000     0.645390000000     0.885470000000     0.355057   
C17      C      0.980760000000     0.366330000000     0.780870000000     0.378812   
C18      C      0.852100000000     0.301690000000     0.011830000000     0.384678   
C19      C      0.108810000000     0.438000000000     0.944710000000     0.361721   
C20      C      0.885660000000     0.628150000000     0.032860000000     0.362274   
C21      C      0.990330000000     0.422250000000     0.090880000000     0.357397   
C22      C      0.108370000000     0.569500000000     0.080370000000     0.35803    
C23      C      0.805670000000     0.526630000000     0.176980000000     0.381923   
C24      C      0.023840000000     0.698590000000     0.195890000000     0.391263   
C25      C      0.617920000000     0.476280000000     0.591320000000     0.354911   
C26      C      0.366520000000     0.746490000000     0.520800000000     0.381755   
C27      C      0.310570000000     0.516190000000     0.678140000000     0.384427   
C28      C      0.500230000000     0.620770000000     0.604240000000     0.365777   
C29      C      0.527450000000     0.349180000000     0.714330000000     0.389681   
C30      C      0.651820000000     0.278770000000     0.483960000000     0.384078   
C31      C      0.398910000000     0.417320000000     0.537430000000     0.358788   
C32      C      0.626080000000     0.603350000000     0.455070000000     0.353618   
C33      C      0.512330000000     0.398580000000     0.400020000000     0.351688   
C34      C      0.397590000000     0.557950000000     0.405800000000     0.357199   
C35      C      0.695630000000     0.483910000000     0.307810000000     0.384636   
C36      C      0.504960000000     0.690420000000     0.292280000000     0.391263   
C37      C      0.513010000000     0.870270000000     0.969350000000     0.351742   
C38      C      0.733050000000     0.174300000000     0.974030000000     0.389321   
C39      C      0.692570000000     0.012210000000     0.198170000000     0.382493   
C40      C      0.652640000000     0.984620000000     0.978220000000     0.358086   
C41      C      0.521860000000     0.787730000000     0.146140000000     0.376724   
C42      C      0.295120000000     0.849300000000     0.014040000000     0.393388   
C43      C      0.501870000000     0.020600000000     0.145990000000     0.358377   
C44      C      0.508130000000     0.023290000000     0.851350000000     0.361925   
C45      C      0.359520000000     0.041980000000     0.032550000000     0.356353   
C46      C      0.516030000000     0.169460000000     0.035860000000     0.361905   
C47      C      0.311490000000     0.044530000000     0.820490000000     0.392717   
C48      C      0.495690000000     0.247830000000     0.853910000000     0.390976   
H1       H      0.034540000000     0.865550000000     0.595820000000    -0.0553185  
H2       H      0.878070000000     0.896010000000     0.494040000000    -0.0601101  
H3       H      0.994910000000     0.181960000000     0.404560000000    -0.0575491  
H4       H      0.917770000000     0.008160000000     0.649420000000    -0.0570915  
H5       H      0.152150000000     0.145560000000     0.492580000000    -0.0538033  
H6       H      0.122960000000     0.034470000000     0.346710000000    -0.0584614  
H7       H      0.119230000000     0.390430000000     0.967380000000    -0.0597235  
H8       H      0.022930000000     0.420310000000     0.131550000000    -0.0557426  
H9       H      0.874580000000     0.675090000000     0.009300000000    -0.0596646  
H10      H      0.156220000000     0.546590000000     0.077890000000    -0.059241   
H11      H      0.972600000000     0.644230000000     0.844160000000    -0.0563032  
H12      H      0.839740000000     0.522630000000     0.899600000000    -0.0527254  
H13      H      0.389280000000     0.371620000000     0.511210000000    -0.0551964  
H14      H      0.480260000000     0.395030000000     0.359050000000    -0.0537984  
H15      H      0.640140000000     0.649350000000     0.478790000000    -0.0576465  
H16      H      0.348560000000     0.537760000000     0.407630000000    -0.0590655  
H17      H      0.530290000000     0.620490000000     0.646780000000    -0.0600666  
H18      H      0.665490000000     0.499760000000     0.588690000000    -0.054014   
H19      H      0.456270000000     0.028000000000     0.171170000000    -0.0539485  
H20      H      0.339440000000     0.090140000000     0.046020000000    -0.0590353  
H21      H      0.552380000000     0.018940000000     0.823350000000    -0.0645055  
H22      H      0.520500000000     0.186250000000     0.084830000000    -0.0624001  
H23      H      0.667530000000     0.933470000000     0.969120000000    -0.0564395  
H24      H      0.515530000000     0.850890000000     0.921110000000    -0.052904   
H25      H      0.489380000000     0.690810000000     0.161770000000     0.107361   
H26      H      0.490510000000     0.788910000000     0.265700000000     0.103155   
H27      H      0.580300000000     0.277380000000     0.763350000000     0.109441   
H28      H      0.449490000000     0.328230000000     0.812210000000     0.11395    
H29      H      0.791420000000     0.241520000000     0.065680000000     0.110085   
H30      H      0.803130000000     0.224580000000     0.922010000000     0.11267    
H31      H      0.166880000000     0.868980000000     0.980820000000     0.10964    
H32      H      0.244490000000     0.766140000000     0.044970000000     0.10401    
H33      H      0.256050000000     0.459080000000     0.741000000000     0.110579   
H34      H      0.268020000000     0.606280000000     0.757080000000     0.108731   
H35      H      0.767350000000     0.433810000000     0.257110000000     0.107949   
H36      H      0.755500000000     0.581910000000     0.244520000000     0.112313   
H37      H      0.714740000000     0.219230000000     0.432080000000     0.111661   
H38      H      0.730240000000     0.236110000000     0.573920000000     0.109262   
H39      H      0.301510000000     0.806320000000     0.569370000000     0.110176   
H40      H      0.298930000000     0.797710000000     0.426630000000     0.107391   
H41      H      0.264520000000     0.956320000000     0.737490000000     0.111997   
H42      H      0.258010000000     0.105080000000     0.759320000000     0.109714   
H43      H      0.718840000000     0.976890000000     0.287730000000     0.105432   
H44      H      0.819090000000     0.030150000000     0.199560000000     0.109644   
H45      H      0.946080000000     0.758910000000     0.274360000000     0.109986   
H46      H      0.087180000000     0.763770000000     0.240630000000     0.108439   
H47      H      0.927250000000     0.294030000000     0.733950000000     0.10964    
H48      H      0.072750000000     0.295330000000     0.725630000000     0.107817   
Mg1      Mg     0.853740000000     0.039230000000     0.456790000000     0.79483    
Mg2      Mg     0.984720000000     0.979010000000     0.346180000000     0.802779   
Mg3      Mg     0.055140000000     0.073040000000     0.647420000000     0.784361   
Mg4      Mg     0.080870000000     0.869090000000     0.452990000000     0.788311   
Mg5      Mg     0.949190000000     0.173510000000     0.538950000000     0.784708   
Mg6      Mg     0.175150000000     0.996590000000     0.539710000000     0.797007   
Mg7      Mg     0.960650000000     0.561390000000     0.146340000000     0.795986   
Mg8      Mg     0.851890000000     0.465620000000     0.040820000000     0.786847   
Mg9      Mg     0.145100000000     0.601400000000     0.944670000000     0.799973   
Mg10     Mg     0.971530000000     0.376050000000     0.937850000000     0.789374   
Mg11     Mg     0.018230000000     0.693160000000     0.036590000000     0.802047   
Mg12     Mg     0.038360000000     0.508620000000     0.830900000000     0.778616   
Mg13     Mg     0.544820000000     0.538560000000     0.340130000000     0.779802   
Mg14     Mg     0.649300000000     0.437730000000     0.449940000000     0.787079   
Mg15     Mg     0.364130000000     0.581970000000     0.545770000000     0.785879   
Mg16     Mg     0.533180000000     0.351380000000     0.553890000000     0.79004    
Mg17     Mg     0.492840000000     0.674630000000     0.453160000000     0.79716    
Mg18     Mg     0.468450000000     0.484280000000     0.656020000000     0.799439   
Mg19     Mg     0.410150000000     0.127210000000     0.923660000000     0.800764   
Mg20     Mg     0.387120000000     0.940440000000     0.917360000000     0.794638   
Mg21     Mg     0.632080000000     0.101420000000     0.083220000000     0.792261   
Mg22     Mg     0.426020000000     0.900880000000     0.086180000000     0.793512   
Mg23     Mg     0.595460000000     0.123210000000     0.906730000000     0.796248   
Mg24     Mg     0.603630000000     0.916410000000     0.097920000000     0.779667   
N1       N      0.511930000000     0.732430000000     0.182780000000    -0.170633   
N2       N      0.503320000000     0.741110000000     0.248980000000    -0.173675   
N3       N      0.540510000000     0.310290000000     0.766040000000    -0.174252   
N4       N      0.493950000000     0.302440000000     0.815370000000    -0.174265   
N5       N      0.813740000000     0.246960000000     0.020920000000    -0.173343   
N6       N      0.788730000000     0.210810000000     0.968230000000    -0.17406    
N7       N      0.185760000000     0.820240000000     0.978950000000    -0.173776   
N8       N      0.242920000000     0.807880000000     0.014500000000    -0.174869   
N9       N      0.262300000000     0.507110000000     0.721700000000    -0.172756   
N10      N      0.240260000000     0.562110000000     0.757770000000    -0.173296   
N11      N      0.740520000000     0.478440000000     0.260350000000    -0.173609   
N12      N      0.760930000000     0.534200000000     0.224270000000    -0.172534   
N13      N      0.696690000000     0.229300000000     0.477950000000    -0.17479    
N14      N      0.733350000000     0.208300000000     0.531550000000    -0.173844   
N15      N      0.324450000000     0.798800000000     0.525180000000    -0.172968   
N16      N      0.293280000000     0.823770000000     0.469750000000    -0.173693   
N17      N      0.239970000000     0.002410000000     0.738320000000    -0.173641   
N18      N      0.267130000000     0.055600000000     0.773570000000    -0.174739   
N19      N      0.732270000000     0.008510000000     0.249980000000    -0.171542   
N20      N      0.797970000000     0.029290000000     0.245180000000    -0.173717   
N21      N      0.995350000000     0.763720000000     0.287220000000    -0.174127   
N22      N      0.042580000000     0.738340000000     0.244860000000    -0.174951   
N23      N      0.972100000000     0.319340000000     0.734760000000    -0.172776   
N24      N      0.026360000000     0.288150000000     0.705600000000    -0.173079   
O1       O      0.925720000000     0.960270000000     0.435260000000    -0.412782   
O2       O      0.091020000000     0.928020000000     0.542870000000    -0.412398   
O3       O      0.970360000000     0.866620000000     0.473520000000    -0.334271   
O4       O      0.993180000000     0.091550000000     0.361530000000    -0.337216   
O5       O      0.966680000000     0.233080000000     0.630570000000    -0.33174    
O6       O      0.974200000000     0.866570000000     0.325730000000    -0.340722   
O7       O      0.872600000000     0.022170000000     0.564410000000    -0.335092   
O8       O      0.075820000000     0.965840000000     0.401380000000    -0.417715   
O9       O      0.191000000000     0.974270000000     0.645880000000    -0.338178   
O10      O      0.060560000000     0.188640000000     0.664880000000    -0.331809   
O11      O      0.046510000000     0.957230000000     0.636220000000    -0.328344   
O12      O      0.193920000000     0.860890000000     0.436240000000    -0.332596   
O13      O      0.895450000000     0.999340000000     0.286240000000    -0.345787   
O14      O      0.836750000000     0.178590000000     0.558120000000    -0.332863   
O15      O      0.960130000000     0.079830000000     0.594700000000    -0.412916   
O16      O      0.107350000000     0.083690000000     0.555830000000    -0.411163   
O17      O      0.060530000000     0.175710000000     0.515810000000    -0.329237   
O18      O      0.240700000000     0.907540000000     0.521580000000    -0.334587   
O19      O      0.934740000000     0.115790000000     0.448480000000    -0.409292   
O20      O      0.166740000000     0.017780000000     0.431980000000    -0.33483    
O21      O      0.785170000000     0.124670000000     0.478930000000    -0.333497   
O22      O      0.063190000000     0.812200000000     0.359640000000    -0.33279    
O23      O      0.820150000000     0.042920000000     0.351050000000    -0.332062   
O24      O      0.153890000000     0.062620000000     0.699280000000    -0.332606   
O25      O      0.948270000000     0.469050000000     0.087920000000    -0.413918   
O26      O      0.054460000000     0.446230000000     0.917070000000    -0.41515    
O27      O      0.000550000000     0.381990000000     0.044620000000    -0.331744   
O28      O      0.845510000000     0.579890000000     0.027170000000    -0.334193   
O29      O      0.092620000000     0.770510000000     0.009190000000    -0.347213   
O30      O      0.848680000000     0.349660000000     0.052200000000    -0.333789   
O31      O      0.070750000000     0.552970000000     0.126140000000    -0.334487   
O32      O      0.903860000000     0.461790000000     0.945420000000    -0.406028   
O33      O      0.149250000000     0.511280000000     0.799180000000    -0.322175   
O34      O      0.162600000000     0.714820000000     0.947900000000    -0.337741   
O35      O      0.148390000000     0.486210000000     0.952900000000    -0.338399   
O36      O      0.944670000000     0.363700000000     0.830580000000    -0.332042   
O37      O      0.802940000000     0.475700000000     0.139930000000    -0.327637   
O38      O      0.049090000000     0.708830000000     0.141150000000    -0.340488   
O39      O      0.089750000000     0.606620000000     0.034480000000    -0.412589   
O40      O      0.050000000000     0.602380000000     0.889450000000    -0.407082   
O41      O      0.989000000000     0.683800000000     0.931520000000    -0.336703   
O42      O      0.025740000000     0.410210000000     0.774790000000    -0.328075   
O43      O      0.940830000000     0.621070000000     0.059710000000    -0.420484   
O44      O      0.926500000000     0.513750000000     0.853370000000    -0.326424   
O45      O      0.978540000000     0.655750000000     0.204570000000    -0.336108   
O46      O      0.887170000000     0.305760000000     0.961620000000    -0.3347     
O47      O      0.851430000000     0.569750000000     0.172880000000    -0.33521    
O48      O      0.195970000000     0.597700000000     0.849950000000    -0.34226    
O49      O      0.552770000000     0.446810000000     0.403050000000    -0.405617   
O50      O      0.450630000000     0.421170000000     0.570910000000    -0.414832   
O51      O      0.505130000000     0.356690000000     0.445680000000    -0.326358   
O52      O      0.662660000000     0.552160000000     0.461330000000    -0.332634   
O53      O      0.407740000000     0.745080000000     0.475070000000    -0.3299     
O54      O      0.645510000000     0.321540000000     0.439100000000    -0.332632   
O55      O      0.434780000000     0.539230000000     0.360640000000    -0.336224   
O56      O      0.599680000000     0.438300000000     0.545920000000    -0.41101    
O57      O      0.358700000000     0.475730000000     0.678970000000    -0.335634   
O58      O      0.359980000000     0.697740000000     0.560090000000    -0.333023   
O59      O      0.361360000000     0.467400000000     0.528190000000    -0.332015   
O60      O      0.557680000000     0.337860000000     0.662020000000    -0.334269   
O61      O      0.696150000000     0.440030000000     0.351990000000    -0.341262   
O62      O      0.485050000000     0.703860000000     0.348550000000    -0.345341   
O63      O      0.418250000000     0.592150000000     0.452710000000    -0.409078   
O64      O      0.457800000000     0.575140000000     0.597070000000    -0.421586   
O65      O      0.514630000000     0.661510000000     0.559850000000    -0.339144   
O66      O      0.483300000000     0.393710000000     0.718230000000    -0.340763   
O67      O      0.570640000000     0.600230000000     0.428070000000    -0.40489    
O68      O      0.580010000000     0.492230000000     0.637260000000    -0.330997   
O69      O      0.531960000000     0.634370000000     0.278520000000    -0.323728   
O70      O      0.619810000000     0.284170000000     0.535620000000    -0.337008   
O71      O      0.653790000000     0.531670000000     0.306670000000    -0.324734   
O72      O      0.309310000000     0.567270000000     0.641230000000    -0.329538   
O73      O      0.383750000000     0.035090000000     0.977080000000    -0.409903   
O74      O      0.510070000000     0.967110000000     0.114140000000    -0.414564   
O75      O      0.364990000000     0.997110000000     0.075410000000    -0.333994   
O76      O      0.470120000000     0.973400000000     0.853370000000    -0.341505   
O77      O      0.694070000000     0.172050000000     0.926370000000    -0.338407   
O78      O      0.299280000000     0.895060000000     0.971600000000    -0.330373   
O79      O      0.459780000000     0.169840000000     0.010920000000    -0.342526   
O80      O      0.461830000000     0.901400000000     0.986920000000    -0.408397   
O81      O      0.650180000000     0.965830000000     0.189080000000    -0.328972   
O82      O      0.718810000000     0.148230000000     0.028200000000    -0.331515   
O83      O      0.542690000000     0.068790000000     0.144310000000    -0.331529   
O84      O      0.481800000000     0.800300000000     0.101230000000    -0.329914   
O85      O      0.316740000000     0.985920000000     0.844740000000    -0.330331   
O86      O      0.550960000000     0.221110000000     0.867180000000    -0.33401    
O87      O      0.564540000000     0.140830000000     0.009950000000    -0.412577   
O88      O      0.636460000000     0.000990000000     0.034640000000    -0.408976   
O89      O      0.643050000000     0.022590000000     0.930470000000    -0.33774    
O90      O      0.565850000000     0.830050000000     0.161670000000    -0.327119   
O91      O      0.501500000000     0.073320000000     0.888020000000    -0.413071   
O92      O      0.563310000000     0.864750000000     0.005250000000    -0.324865   
O93      O      0.441370000000     0.221150000000     0.870080000000    -0.338487   
O94      O      0.340190000000     0.838810000000     0.054740000000    -0.345766   
O95      O      0.345120000000     0.094240000000     0.840400000000    -0.343772   
O96      O      0.700900000000     0.060050000000     0.158540000000    -0.330988   


