data_structure

_audit_creation_method RASPA-1.0
_audit_creation_date 2023-5-9
_audit_author_name 'Poobodin Mano'

_cell_length_a    21.307
_cell_length_b    20.3881
_cell_length_c    21.7196
_cell_angle_alpha 89.9989
_cell_angle_beta  90.0003
_cell_angle_gamma 89.9992
_cell_volume      9435.2

_symmetry_cell_setting          triclinic
_symmetry_space_group_name_Hall 'P 1'
_symmetry_space_group_name_H-M  'P 1'
_symmetry_Int_Tables_number     1

_symmetry_equiv_pos_as_xyz 'x,y,z'

loop_
_atom_site_label
_atom_site_type_symbol
_atom_site_fract_x
_atom_site_fract_y
_atom_site_fract_z
_atom_site_charge
C1       C      0.113210000000     0.025190000000     0.404630000000     0.360481   
C2       C      0.010990000000     0.256360000000     0.672060000000     0.392416   
C3       C      0.223400000000     0.087410000000     0.681960000000     0.398637   
C4       C      0.100290000000     0.169030000000     0.526150000000     0.356494   
C5       C      0.267830000000     0.931070000000     0.472980000000     0.391513   
C6       C      0.039490000000     0.810340000000     0.383470000000     0.392873   
C7       C      0.104550000000     0.951650000000     0.613290000000     0.359498   
C8       C      0.959820000000     0.121650000000     0.428770000000     0.354556   
C9       C      0.958500000000     0.908560000000     0.519840000000     0.356707   
C10      C      0.943500000000     0.046760000000     0.637550000000     0.359516   
C11      C      0.840380000000     0.990060000000     0.354770000000     0.400656   
C12      C      0.792730000000     0.144120000000     0.566900000000     0.392054   
C13      C      0.909340000000     0.537810000000     0.924420000000     0.349366   
C14      C      0.111820000000     0.833470000000     0.993840000000     0.393992   
C15      C      0.180280000000     0.645970000000     0.806620000000     0.389627   
C16      C      0.996650000000     0.698170000000     0.922900000000     0.355969   
C17      C      0.994610000000     0.450470000000     0.776710000000     0.395931   
C18      C      0.921620000000     0.325340000000     0.000950000000     0.393421   
C19      C      0.132860000000     0.513510000000     0.931730000000     0.354084   
C20      C      0.915310000000     0.640950000000     0.076820000000     0.361993   
C21      C      0.047890000000     0.450290000000     0.078890000000     0.358721   
C22      C      0.138760000000     0.618880000000     0.073210000000     0.357677   
C23      C      0.878880000000     0.499070000000     0.203720000000     0.384955   
C24      C      0.067160000000     0.701910000000     0.219910000000     0.392934   
C25      C      0.624500000000     0.488250000000     0.579480000000     0.352438   
C26      C      0.371630000000     0.737160000000     0.476950000000     0.388444   
C27      C      0.332630000000     0.556150000000     0.673650000000     0.389616   
C28      C      0.506320000000     0.634640000000     0.570490000000     0.360834   
C29      C      0.545370000000     0.390410000000     0.722720000000     0.390137   
C30      C      0.650520000000     0.274450000000     0.504570000000     0.388862   
C31      C      0.410230000000     0.423210000000     0.554980000000     0.354965   
C32      C      0.615620000000     0.588910000000     0.431330000000     0.354665   
C33      C      0.516880000000     0.378130000000     0.416880000000     0.35682    
C34      C      0.399890000000     0.524940000000     0.404970000000     0.357118   
C35      C      0.690890000000     0.462640000000     0.308970000000     0.388763   
C36      C      0.488490000000     0.626810000000     0.264830000000     0.399864   
C37      C      0.497580000000     0.922220000000     0.982700000000     0.357075   
C38      C      0.762300000000     0.167040000000     0.047100000000     0.387361   
C39      C      0.665600000000     0.993140000000     0.230920000000     0.39698    
C40      C      0.656490000000     0.005960000000     0.014920000000     0.358611   
C41      C      0.475580000000     0.824110000000     0.142020000000     0.3962     
C42      C      0.285270000000     0.948740000000     0.016420000000     0.401567   
C43      C      0.501370000000     0.050040000000     0.167980000000     0.360507   
C44      C      0.542980000000     0.075690000000     0.889150000000     0.357982   
C45      C      0.389600000000     0.118100000000     0.046300000000     0.356928   
C46      C      0.550010000000     0.202680000000     0.075070000000     0.358492   
C47      C      0.366720000000     0.135870000000     0.837900000000     0.395217   
C48      C      0.569440000000     0.298900000000     0.910830000000     0.390305   
C49      C      0.497120000000     0.730850000000     0.209890000000     0.0727472  
C50      C      0.546690000000     0.389410000000     0.837360000000     0.073358   
C51      C      0.837650000000     0.257880000000     0.043620000000     0.0702452  
C52      C      0.184150000000     0.922530000000     0.963550000000     0.0734014  
C53      C      0.229570000000     0.598210000000     0.712220000000     0.070198   
C54      C      0.796140000000     0.436900000000     0.262210000000     0.0723852  
C55      C      0.679930000000     0.165060000000     0.546940000000     0.0734824  
C56      C      0.336020000000     0.842540000000     0.430290000000     0.0731936  
C57      C      0.268370000000     0.131960000000     0.777640000000     0.0759176  
C58      C      0.732260000000     0.017030000000     0.321810000000     0.0768601  
C59      C      0.080990000000     0.711210000000     0.332870000000     0.0741569  
C60      C      0.957810000000     0.353620000000     0.717040000000     0.074029   
H1       H      0.092760000000     0.900850000000     0.621640000000    -0.0617907  
H2       H      0.923250000000     0.896820000000     0.553890000000    -0.0591066  
H3       H      0.973260000000     0.172040000000     0.420650000000    -0.058044   
H4       H      0.955720000000     0.024190000000     0.680970000000    -0.0607359  
H5       H      0.135750000000     0.182530000000     0.492880000000    -0.0604279  
H6       H      0.098330000000     0.046760000000     0.361580000000    -0.0619372  
H7       H      0.152690000000     0.467160000000     0.946060000000    -0.059309   
H8       H      0.084680000000     0.448170000000     0.113110000000    -0.0621526  
H9       H      0.895860000000     0.688180000000     0.064660000000    -0.0639188  
H10      H      0.185670000000     0.606250000000     0.058420000000    -0.0605496  
H11      H      0.959840000000     0.696650000000     0.888700000000    -0.0585885  
H12      H      0.862280000000     0.551800000000     0.937600000000    -0.057992   
H13      H      0.400750000000     0.373560000000     0.540210000000    -0.059679   
H14      H      0.484110000000     0.369340000000     0.379790000000    -0.0599683  
H15      H      0.625500000000     0.638560000000     0.445880000000    -0.061043   
H16      H      0.354630000000     0.503680000000     0.415330000000    -0.0609507  
H17      H      0.537880000000     0.643640000000     0.608540000000    -0.0626141  
H18      H      0.669540000000     0.510410000000     0.569910000000    -0.0583657  
H19      H      0.457010000000     0.063480000000     0.188570000000    -0.060692   
H20      H      0.382200000000     0.168460000000     0.060080000000    -0.0599238  
H21      H      0.586360000000     0.062040000000     0.866730000000    -0.059973   
H22      H      0.548820000000     0.215610000000     0.123330000000    -0.0606277  
H23      H      0.664760000000     0.955900000000     0.000690000000    -0.0599497  
H24      H      0.499090000000     0.910140000000     0.934260000000    -0.0599114  
H25      H      0.491420000000     0.634700000000     0.169940000000     0.105736   
H26      H      0.415180000000     0.745250000000     0.153070000000     0.108158   
H27      H      0.485730000000     0.754520000000     0.254660000000     0.0311569  
H28      H      0.548170000000     0.737640000000     0.201240000000     0.0293433  
H29      H      0.590700000000     0.320050000000     0.775070000000     0.106898   
H30      H      0.629520000000     0.376490000000     0.892850000000     0.102199   
H31      H      0.555730000000     0.443110000000     0.838630000000     0.0259257  
H32      H      0.495730000000     0.381580000000     0.845610000000     0.0354362  
H33      H      0.851860000000     0.163100000000     0.083920000000     0.104551   
H34      H      0.906360000000     0.228370000000     0.975000000000     0.108029   
H35      H      0.798760000000     0.284230000000     0.019970000000     0.0324799  
H36      H      0.844050000000     0.281510000000     0.089380000000     0.0297763  
H37      H      0.213980000000     0.894900000000     0.054690000000     0.108788   
H38      H      0.096210000000     0.931950000000     0.009520000000     0.103363   
H39      H      0.178620000000     0.973220000000     0.945510000000     0.0280188  
H40      H      0.203210000000     0.890970000000     0.926220000000     0.032543   
H41      H      0.295110000000     0.535260000000     0.759610000000     0.106412   
H42      H      0.262220000000     0.680070000000     0.766180000000     0.105541   
H43      H      0.227530000000     0.625300000000     0.667900000000     0.031406   
H44      H      0.189200000000     0.563730000000     0.712550000000     0.0333887  
H45      H      0.721380000000     0.493400000000     0.223100000000     0.107564   
H46      H      0.853950000000     0.515940000000     0.294660000000     0.104661   
H47      H      0.805060000000     0.409470000000     0.305540000000     0.0282741  
H48      H      0.798640000000     0.400760000000     0.223980000000     0.0293044  
H49      H      0.737980000000     0.209700000000     0.616160000000     0.106608   
H50      H      0.708360000000     0.207430000000     0.460480000000     0.105979   
H51      H      0.677190000000     0.115600000000     0.525570000000     0.029266   
H52      H      0.638430000000     0.169560000000     0.577650000000     0.0291339  
H53      H      0.304420000000     0.798170000000     0.514970000000     0.106364   
H54      H      0.364920000000     0.934940000000     0.468640000000     0.104157   
H55      H      0.381290000000     0.843340000000     0.404820000000     0.028856   
H56      H      0.298440000000     0.829820000000     0.396850000000     0.0312629  
H57      H      0.343410000000     0.202300000000     0.769270000000     0.103665   
H58      H      0.314740000000     0.070000000000     0.710660000000     0.10973    
H59      H      0.250040000000     0.100540000000     0.815430000000     0.0331918  
H60      H      0.234990000000     0.173490000000     0.772060000000     0.0281274  
H61      H      0.804260000000     0.968070000000     0.268660000000     0.109349   
H62      H      0.669840000000     0.935110000000     0.309200000000     0.103279   
H63      H      0.719710000000     0.016070000000     0.371510000000     0.0273414  
H64      H      0.732030000000     0.069180000000     0.306860000000     0.0315428  
H65      H      0.118690000000     0.774840000000     0.263070000000     0.105673   
H66      H      0.985190000000     0.742550000000     0.336840000000     0.10827    
H67      H      0.067530000000     0.658640000000     0.335840000000     0.0289032  
H68      H      0.123940000000     0.717250000000     0.361390000000     0.029164   
H69      H      0.987720000000     0.446840000000     0.681610000000     0.104436   
H70      H      0.050500000000     0.317040000000     0.738040000000     0.105956   
H71      H      0.931030000000     0.338230000000     0.758520000000     0.032109   
H72      H      0.925270000000     0.350670000000     0.677130000000     0.0295517  
Mg1      Mg     0.869980000000     0.023660000000     0.503930000000     0.791298   
Mg2      Mg     0.987640000000     0.966320000000     0.387010000000     0.796396   
Mg3      Mg     0.072450000000     0.105010000000     0.657220000000     0.793984   
Mg4      Mg     0.112670000000     0.894630000000     0.487850000000     0.787355   
Mg5      Mg     0.946960000000     0.176760000000     0.557590000000     0.790036   
Mg6      Mg     0.188500000000     0.053410000000     0.535100000000     0.797466   
Mg7      Mg     0.017430000000     0.565540000000     0.157570000000     0.793267   
Mg8      Mg     0.902050000000     0.480680000000     0.053580000000     0.787996   
Mg9      Mg     0.145430000000     0.676930000000     0.948940000000     0.787495   
Mg10     Mg     0.017320000000     0.426740000000     0.929970000000     0.782742   
Mg11     Mg     0.027510000000     0.725210000000     0.070420000000     0.798779   
Mg12     Mg     0.035880000000     0.586900000000     0.844450000000     0.79181    
Mg13     Mg     0.537580000000     0.496080000000     0.338090000000     0.795814   
Mg14     Mg     0.653440000000     0.431930000000     0.453710000000     0.779769   
Mg15     Mg     0.372260000000     0.580420000000     0.528930000000     0.789593   
Mg16     Mg     0.537660000000     0.360950000000     0.568580000000     0.787704   
Mg17     Mg     0.489470000000     0.652890000000     0.418790000000     0.791131   
Mg18     Mg     0.485530000000     0.516180000000     0.648540000000     0.786877   
Mg19     Mg     0.462250000000     0.190350000000     0.947990000000     0.790069   
Mg20     Mg     0.402100000000     0.017440000000     0.932670000000     0.78812    
Mg21     Mg     0.642080000000     0.105080000000     0.127120000000     0.792036   
Mg22     Mg     0.412540000000     0.966370000000     0.097380000000     0.805108   
Mg23     Mg     0.635000000000     0.158870000000     0.962640000000     0.789801   
Mg24     Mg     0.582900000000     0.933070000000     0.111150000000     0.796133   
N1       N      0.460180000000     0.763280000000     0.162280000000    -0.222031   
N2       N      0.484300000000     0.660290000000     0.211090000000    -0.22213    
N3       N      0.584450000000     0.357790000000     0.885440000000    -0.220827   
N4       N      0.564170000000     0.363210000000     0.776800000000    -0.218467   
N5       N      0.894700000000     0.265180000000     0.006520000000    -0.219313   
N6       N      0.822050000000     0.188870000000     0.054300000000    -0.219855   
N7       N      0.123230000000     0.898310000000     0.984610000000    -0.220555   
N8       N      0.226910000000     0.922610000000     0.016110000000    -0.223337   
N9       N      0.225710000000     0.646000000000     0.762610000000    -0.219377   
N10      N      0.287770000000     0.560070000000     0.718080000000    -0.219063   
N11      N      0.844260000000     0.487870000000     0.255480000000    -0.217937   
N12      N      0.733810000000     0.467060000000     0.262600000000    -0.218466   
N13      N      0.679220000000     0.215220000000     0.498540000000    -0.219028   
N14      N      0.737370000000     0.172180000000     0.583330000000    -0.21992    
N15      N      0.325200000000     0.907790000000     0.456350000000    -0.220052   
N16      N      0.337530000000     0.793490000000     0.479670000000    -0.218144   
N17      N      0.272430000000     0.093550000000     0.721120000000    -0.222136   
N18      N      0.329870000000     0.159500000000     0.792270000000    -0.223398   
N19      N      0.685680000000     0.978360000000     0.288460000000    -0.223039   
N20      N      0.794470000000     0.988810000000     0.311660000000    -0.222288   
N21      N      0.029560000000     0.751830000000     0.355530000000    -0.220954   
N22      N      0.094370000000     0.730800000000     0.269450000000    -0.220563   
N23      N      0.012060000000     0.310280000000     0.708750000000    -0.219813   
N24      N      0.979090000000     0.421420000000     0.722580000000    -0.22142    
O1       O      0.947380000000     0.954110000000     0.481550000000    -0.410416   
O2       O      0.128750000000     0.967020000000     0.561940000000    -0.412584   
O3       O      0.011880000000     0.881070000000     0.524270000000    -0.335848   
O4       O      0.977910000000     0.078570000000     0.390310000000    -0.335232   
O5       O      0.964240000000     0.246910000000     0.636520000000    -0.344061   
O6       O      0.997070000000     0.854240000000     0.378580000000    -0.341659   
O7       O      0.900830000000     0.020310000000     0.605210000000    -0.338033   
O8       O      0.083130000000     0.976370000000     0.425480000000    -0.416668   
O9       O      0.232730000000     0.058480000000     0.630760000000    -0.346321   
O10      O      0.056380000000     0.215550000000     0.675800000000    -0.3416     
O11      O      0.085410000000     0.994050000000     0.651660000000    -0.339078   
O12      O      0.218180000000     0.898650000000     0.459260000000    -0.337336   
O13      O      0.891960000000     0.961370000000     0.342910000000    -0.349109   
O14      O      0.843390000000     0.168260000000     0.588670000000    -0.341043   
O15      O      0.977100000000     0.093340000000     0.617460000000    -0.413889   
O16      O      0.111110000000     0.121490000000     0.562260000000    -0.410366   
O17      O      0.046820000000     0.196220000000     0.522350000000    -0.337748   
O18      O      0.265700000000     0.984490000000     0.503480000000    -0.342442   
O19      O      0.933800000000     0.107120000000     0.479640000000    -0.41066    
O20      O      0.153470000000     0.055940000000     0.436340000000    -0.341251   
O21      O      0.793030000000     0.096450000000     0.528860000000    -0.342428   
O22      O      0.090900000000     0.820420000000     0.412280000000    -0.342514   
O23      O      0.830340000000     0.018630000000     0.406090000000    -0.346346   
O24      O      0.170580000000     0.112720000000     0.696260000000    -0.346285   
O25      O      0.001130000000     0.487310000000     0.088600000000    -0.412748   
O26      O      0.077360000000     0.514330000000     0.910500000000    -0.408465   
O27      O      0.057950000000     0.423330000000     0.027220000000    -0.338225   
O28      O      0.884000000000     0.590200000000     0.063220000000    -0.341912   
O29      O      0.076680000000     0.817480000000     0.038900000000    -0.347311   
O30      O      0.905820000000     0.370030000000     0.039180000000    -0.346241   
O31      O      0.113890000000     0.584170000000     0.115150000000    -0.337759   
O32      O      0.938260000000     0.496020000000     0.957250000000    -0.401419   
O33      O      0.133970000000     0.606330000000     0.802070000000    -0.338711   
O34      O      0.136310000000     0.790640000000     0.957940000000    -0.335556   
O35      O      0.163480000000     0.565580000000     0.943380000000    -0.335239   
O36      O      0.985290000000     0.420340000000     0.827670000000    -0.339046   
O37      O      0.866810000000     0.467780000000     0.153900000000    -0.333915   
O38      O      0.070310000000     0.731290000000     0.167960000000    -0.341936   
O39      O      0.108470000000     0.661550000000     0.042670000000    -0.412545   
O40      O      0.047110000000     0.666790000000     0.912480000000    -0.412511   
O41      O      0.983610000000     0.723100000000     0.974900000000    -0.337159   
O42      O      0.018710000000     0.507510000000     0.774540000000    -0.348939   
O43      O      0.971610000000     0.638170000000     0.095340000000    -0.417572   
O44      O      0.935810000000     0.569930000000     0.881430000000    -0.333318   
O45      O      0.039920000000     0.646460000000     0.226420000000    -0.34226    
O46      O      0.957580000000     0.336980000000     0.955150000000    -0.33954    
O47      O      0.924590000000     0.539630000000     0.207600000000    -0.339198   
O48      O      0.185870000000     0.685320000000     0.852040000000    -0.341615   
O49      O      0.558110000000     0.422470000000     0.410130000000    -0.41192    
O50      O      0.461600000000     0.435090000000     0.582370000000    -0.408559   
O51      O      0.506760000000     0.350050000000     0.468100000000    -0.336976   
O52      O      0.653560000000     0.544020000000     0.447310000000    -0.336863   
O53      O      0.412160000000     0.729360000000     0.434140000000    -0.338331   
O54      O      0.662030000000     0.318810000000     0.464320000000    -0.339041   
O55      O      0.434670000000     0.495360000000     0.366590000000    -0.338882   
O56      O      0.606210000000     0.441040000000     0.545830000000    -0.405569   
O57      O      0.383250000000     0.524630000000     0.685540000000    -0.337929   
O58      O      0.360300000000     0.692520000000     0.516840000000    -0.340488   
O59      O      0.373380000000     0.468220000000     0.536840000000    -0.336665   
O60      O      0.562330000000     0.362760000000     0.672490000000    -0.340097   
O61      O      0.703160000000     0.430450000000     0.358240000000    -0.334655   
O62      O      0.473950000000     0.655980000000     0.314870000000    -0.346768   
O63      O      0.419250000000     0.572310000000     0.437730000000    -0.410538   
O64      O      0.465780000000     0.589570000000     0.575550000000    -0.413286   
O65      O      0.517180000000     0.663310000000     0.519870000000    -0.341055   
O66      O      0.511050000000     0.441820000000     0.723350000000    -0.339745   
O67      O      0.563350000000     0.576920000000     0.405710000000    -0.406867   
O68      O      0.589060000000     0.516150000000     0.618640000000    -0.335148   
O69      O      0.513350000000     0.570070000000     0.264240000000    -0.346584   
O70      O      0.613650000000     0.284360000000     0.550080000000    -0.339466   
O71      O      0.638080000000     0.490800000000     0.300860000000    -0.343199   
O72      O      0.323740000000     0.584800000000     0.622110000000    -0.341638   
O73      O      0.412230000000     0.106650000000     0.993420000000    -0.409663   
O74      O      0.503400000000     0.000180000000     0.133040000000    -0.418637   
O75      O      0.383250000000     0.073670000000     0.086670000000    -0.339113   
O76      O      0.496220000000     0.037450000000     0.884010000000    -0.336557   
O77      O      0.728460000000     0.190840000000     0.003980000000    -0.34009    
O78      O      0.304920000000     0.983210000000     0.971090000000    -0.339872   
O79      O      0.503640000000     0.219040000000     0.041720000000    -0.338165   
O80      O      0.453570000000     0.958660000000     0.002220000000    -0.411716   
O81      O      0.626700000000     0.954300000000     0.205240000000    -0.346428   
O82      O      0.740660000000     0.126130000000     0.086300000000    -0.338814   
O83      O      0.547000000000     0.089600000000     0.173540000000    -0.338386   
O84      O      0.433500000000     0.857970000000     0.115300000000    -0.34549    
O85      O      0.352390000000     0.081650000000     0.863610000000    -0.344877   
O86      O      0.612210000000     0.267350000000     0.939630000000    -0.340747   
O87      O      0.593090000000     0.164830000000     0.056060000000    -0.414208   
O88      O      0.632570000000     0.016350000000     0.067510000000    -0.413554   
O89      O      0.663780000000     0.051160000000     0.975300000000    -0.336948   
O90      O      0.530350000000     0.846800000000     0.152490000000    -0.346026   
O91      O      0.542930000000     0.124430000000     0.925340000000    -0.410936   
O92      O      0.543850000000     0.905590000000     0.016120000000    -0.337453   
O93      O      0.514370000000     0.275630000000     0.903350000000    -0.339281   
O94      O      0.319540000000     0.935890000000     0.062560000000    -0.355275   
O95      O      0.412730000000     0.171040000000     0.855870000000    -0.343375   
O96      O      0.685270000000     0.045170000000     0.204500000000    -0.34314    


