data_structure

_audit_creation_method RASPA-1.0
_audit_creation_date 2023-5-9
_audit_author_name 'Poobodin Mano'

_cell_length_a    23.1226
_cell_length_b    23.8194
_cell_length_c    22.2877
_cell_angle_alpha 89.9989
_cell_angle_beta  90.0003
_cell_angle_gamma 89.9992
_cell_volume      12275.3

_symmetry_cell_setting          triclinic
_symmetry_space_group_name_Hall 'P 1'
_symmetry_space_group_name_H-M  'P 1'
_symmetry_Int_Tables_number     1

_symmetry_equiv_pos_as_xyz 'x,y,z'

loop_
_atom_site_label
_atom_site_type_symbol
_atom_site_fract_x
_atom_site_fract_y
_atom_site_fract_z
_atom_site_charge
C1       C      0.130290000000     0.973670000000     0.452190000000     0.352291   
C2       C      0.014050000000     0.209500000000     0.658490000000     0.384619   
C3       C      0.141170000000     0.022330000000     0.745830000000     0.389228   
C4       C      0.113110000000     0.100070000000     0.557980000000     0.356252   
C5       C      0.208010000000     0.861210000000     0.571680000000     0.381533   
C6       C      0.041970000000     0.812330000000     0.392040000000     0.386423   
C7       C      0.032840000000     0.930210000000     0.637090000000     0.356215   
C8       C      0.011280000000     0.087530000000     0.418030000000     0.355717   
C9       C      0.936060000000     0.913370000000     0.495270000000     0.35714    
C10      C      0.920010000000     0.043030000000     0.605690000000     0.357165   
C11      C      0.901110000000     0.997210000000     0.310960000000     0.382064   
C12      C      0.837350000000     0.151800000000     0.491250000000     0.391848   
C13      C      0.915480000000     0.494210000000     0.944290000000     0.354746   
C14      C      0.179640000000     0.666540000000     0.041300000000     0.388661   
C15      C      0.196620000000     0.475060000000     0.887530000000     0.39309    
C16      C      0.048620000000     0.593110000000     0.955080000000     0.35561    
C17      C      0.982140000000     0.373900000000     0.831440000000     0.38414    
C18      C      0.840420000000     0.337830000000     0.040690000000     0.390639   
C19      C      0.090730000000     0.402210000000     0.005260000000     0.354103   
C20      C      0.935480000000     0.598490000000     0.078680000000     0.35843    
C21      C      0.974180000000     0.406480000000     0.128150000000     0.359668   
C22      C      0.109540000000     0.504670000000     0.136620000000     0.358882   
C23      C      0.830530000000     0.527670000000     0.197820000000     0.393341   
C24      C      0.044710000000     0.620900000000     0.252250000000     0.391782   
C25      C      0.620350000000     0.475600000000     0.652800000000     0.353388   
C26      C      0.396900000000     0.710140000000     0.603290000000     0.384591   
C27      C      0.336720000000     0.492280000000     0.706560000000     0.387869   
C28      C      0.508840000000     0.592300000000     0.676830000000     0.358557   
C29      C      0.539230000000     0.352810000000     0.734990000000     0.386504   
C30      C      0.665650000000     0.326700000000     0.523880000000     0.393682   
C31      C      0.433510000000     0.433160000000     0.575220000000     0.357514   
C32      C      0.632160000000     0.601600000000     0.549560000000     0.360043   
C33      C      0.550080000000     0.437300000000     0.454520000000     0.357082   
C34      C      0.439370000000     0.562880000000     0.476540000000     0.359773   
C35      C      0.717600000000     0.533890000000     0.408400000000     0.392817   
C36      C      0.536210000000     0.686980000000     0.399180000000     0.400291   
C37      C      0.579710000000     0.021180000000     0.922520000000     0.351093   
C38      C      0.364750000000     0.808020000000     0.035650000000     0.391751   
C39      C      0.291010000000     0.012940000000     0.933310000000     0.389564   
C40      C      0.465610000000     0.910060000000     0.941310000000     0.355718   
C41      C      0.480650000000     0.146940000000     0.853020000000     0.388461   
C42      C      0.664170000000     0.168490000000     0.024140000000     0.391577   
C43      C      0.415190000000     0.082690000000     0.037090000000     0.353595   
C44      C      0.603910000000     0.897540000000     0.040070000000     0.360419   
C45      C      0.559700000000     0.076000000000     0.129540000000     0.359318   
C46      C      0.437180000000     0.964140000000     0.143920000000     0.360209   
C47      C      0.725630000000     0.968710000000     0.148730000000     0.380823   
C48      C      0.523280000000     0.845760000000     0.223990000000     0.396278   
C49      C      0.533920000000     0.830520000000     0.332740000000    -0.00990622 
C50      C      0.516100000000     0.786430000000     0.378730000000    -0.00897537 
C51      C      0.516450000000     0.279880000000     0.810060000000    -0.0125556  
C52      C      0.528370000000     0.219380000000     0.789780000000    -0.00898732 
C53      C      0.762280000000     0.200280000000     0.051070000000    -0.0114795  
C54      C      0.805850000000     0.241300000000     0.023840000000    -0.0102153  
C55      C      0.251400000000     0.711090000000     0.974620000000    -0.00937159 
C56      C      0.289490000000     0.763660000000     0.972920000000    -0.0112558  
C57      C      0.234070000000     0.415410000000     0.805660000000    -0.00945402 
C58      C      0.284440000000     0.417910000000     0.761490000000    -0.011093   
C59      C      0.802200000000     0.591790000000     0.279200000000    -0.0118871  
C60      C      0.756920000000     0.594640000000     0.328990000000    -0.00963378 
C61      C      0.750210000000     0.282940000000     0.473240000000    -0.0124624  
C62      C      0.796870000000     0.246910000000     0.503510000000    -0.00996787 
C63      C      0.311980000000     0.760700000000     0.646860000000    -0.0114274  
C64      C      0.281490000000     0.818040000000     0.638310000000    -0.0125293  
C65      C      0.166700000000     0.066530000000     0.843010000000    -0.0103649  
C66      C      0.224260000000     0.074960000000     0.876150000000    -0.0117384  
C67      C      0.832900000000     0.979170000000     0.157110000000    -0.012645   
C68      C      0.880530000000     0.969510000000     0.204860000000    -0.0113372  
C69      C      0.103920000000     0.687810000000     0.311670000000    -0.0113035  
C70      C      0.093420000000     0.724890000000     0.366940000000    -0.010671   
C71      C      0.987080000000     0.309130000000     0.676460000000    -0.0108443  
C72      C      0.998000000000     0.356050000000     0.722820000000    -0.0129252  
H1       H      0.007770000000     0.892020000000     0.640320000000    -0.0593262  
H2       H      0.892720000000     0.912480000000     0.513450000000    -0.0617458  
H3       H      0.035120000000     0.126450000000     0.414570000000    -0.062205   
H4       H      0.913020000000     0.024180000000     0.649210000000    -0.0613802  
H5       H      0.156360000000     0.099020000000     0.539620000000    -0.0604827  
H6       H      0.140540000000     0.992460000000     0.409340000000    -0.0590027  
H7       H      0.087670000000     0.361600000000     0.026680000000    -0.0600552  
H8       H      0.997620000000     0.398040000000     0.169130000000    -0.0634032  
H9       H      0.939470000000     0.639360000000     0.058020000000    -0.0622899  
H10      H      0.146250000000     0.476670000000     0.134120000000    -0.0616879  
H11      H      0.024790000000     0.601830000000     0.914400000000    -0.0607866  
H12      H      0.878790000000     0.522330000000     0.945100000000    -0.0608659  
H13      H      0.429000000000     0.398570000000     0.544170000000    -0.0596244  
H14      H      0.525980000000     0.442880000000     0.413380000000    -0.0615471  
H15      H      0.638310000000     0.637310000000     0.578810000000    -0.0646912  
H16      H      0.397150000000     0.543880000000     0.471910000000    -0.0633023  
H17      H      0.531900000000     0.585070000000     0.718310000000    -0.0620504  
H18      H      0.661520000000     0.496250000000     0.659210000000    -0.0580751  
H19      H      0.418800000000     0.119830000000     0.064710000000    -0.0588739  
H20      H      0.545330000000     0.076240000000     0.175690000000    -0.0634016  
H21      H      0.599270000000     0.859250000000     0.014490000000    -0.0644967  
H22      H      0.398550000000     0.987790000000     0.154210000000    -0.0616615  
H23      H      0.481400000000     0.911690000000     0.895700000000    -0.0593774  
H24      H      0.617400000000     0.997880000000     0.908230000000    -0.0597688  
H25      H      0.474770000000     0.788570000000     0.271590000000     0.102972   
H26      H      0.554070000000     0.724480000000     0.317850000000     0.104155   
H27      H      0.581950000000     0.831750000000     0.329740000000     0.0434333  
H28      H      0.518140000000     0.872340000000     0.347660000000     0.0354704  
H29      H      0.468240000000     0.786220000000     0.383740000000     0.0416225  
H30      H      0.535640000000     0.798010000000     0.422650000000     0.0368438  
H31      H      0.599910000000     0.303770000000     0.777400000000     0.0991346  
H32      H      0.446240000000     0.179530000000     0.774520000000     0.0976577  
H33      H      0.523650000000     0.283370000000     0.859190000000     0.0415704  
H34      H      0.470760000000     0.291440000000     0.800270000000     0.0445912  
H35      H      0.569770000000     0.204330000000     0.809520000000     0.0444597  
H36      H      0.533970000000     0.218620000000     0.740200000000     0.0359413  
H37      H      0.691760000000     0.250960000000     0.014810000000     0.100961   
H38      H      0.767570000000     0.305100000000     0.081690000000     0.100811   
H39      H      0.762280000000     0.203580000000     0.100830000000     0.0408141  
H40      H      0.776940000000     0.157230000000     0.039010000000     0.0400668  
H41      H      0.798830000000     0.244740000000     0.974600000000     0.0432438  
H42      H      0.850080000000     0.224350000000     0.031550000000     0.0377082  
H43      H      0.210510000000     0.747140000000     0.053770000000     0.102256   
H44      H      0.347890000000     0.722840000000     0.035560000000     0.101123   
H45      H      0.279070000000     0.672890000000     0.973340000000     0.0428532  
H46      H      0.223410000000     0.710950000000     0.934040000000     0.0376822  
H47      H      0.261740000000     0.801550000000     0.977830000000     0.0453085  
H48      H      0.311270000000     0.765860000000     0.928520000000     0.0361328  
H49      H      0.283350000000     0.469290000000     0.865670000000     0.101813   
H50      H      0.249130000000     0.495420000000     0.725220000000     0.100697   
H51      H      0.232100000000     0.372780000000     0.825830000000     0.0353148  
H52      H      0.193120000000     0.422920000000     0.780670000000     0.0429328  
H53      H      0.278320000000     0.385140000000     0.726570000000     0.0351926  
H54      H      0.325130000000     0.408510000000     0.786210000000     0.044681   
H55      H      0.745550000000     0.538430000000     0.225390000000     0.100153   
H56      H      0.800480000000     0.524850000000     0.374020000000     0.101263   
H57      H      0.845310000000     0.584750000000     0.300070000000     0.0467957  
H58      H      0.803500000000     0.633050000000     0.255930000000     0.0362784  
H59      H      0.713190000000     0.596430000000     0.308210000000     0.0439468  
H60      H      0.763510000000     0.634090000000     0.354750000000     0.037518   
H61      H      0.681270000000     0.241040000000     0.521270000000     0.100654   
H62      H      0.754190000000     0.173390000000     0.465330000000     0.099336   
H63      H      0.742280000000     0.268450000000     0.426550000000     0.0393627  
H64      H      0.766830000000     0.326670000000     0.470490000000     0.0431474  
H65      H      0.794080000000     0.250740000000     0.553150000000     0.0439105  
H66      H      0.839750000000     0.263470000000     0.489260000000     0.0374457  
H67      H      0.385040000000     0.795920000000     0.598930000000     0.100219   
H68      H      0.251830000000     0.787650000000     0.551320000000     0.10027    
H69      H      0.282740000000     0.726170000000     0.632380000000     0.0416831  
H70      H      0.321310000000     0.754790000000     0.695370000000     0.0371555  
H71      H      0.313240000000     0.853020000000     0.640490000000     0.0409006  
H72      H      0.250910000000     0.823530000000     0.676420000000     0.0392246  
H73      H      0.201890000000     0.989810000000     0.804520000000     0.103307   
H74      H      0.202180000000     0.004550000000     0.933140000000     0.0990679  
H75      H      0.155280000000     0.107130000000     0.821360000000     0.0415373  
H76      H      0.131730000000     0.055720000000     0.875210000000     0.03698    
H77      H      0.221250000000     0.113200000000     0.904540000000     0.035629   
H78      H      0.259280000000     0.081410000000     0.842620000000     0.0459903  
H79      H      0.776060000000     0.927260000000     0.211440000000     0.100957   
H80      H      0.835900000000     0.031540000000     0.259150000000     0.102308   
H81      H      0.846160000000     0.958160000000     0.114770000000     0.0358071  
H82      H      0.829000000000     0.024940000000     0.148050000000     0.0428941  
H83      H      0.922880000000     0.982160000000     0.185540000000     0.0364559  
H84      H      0.882740000000     0.924070000000     0.216130000000     0.0419846  
H85      H      0.036660000000     0.632030000000     0.343680000000     0.0996902  
H86      H      0.022840000000     0.764180000000     0.317050000000     0.101773   
H87      H      0.145650000000     0.665270000000     0.317300000000     0.0361513  
H88      H      0.107250000000     0.714830000000     0.271080000000     0.0447546  
H89      H      0.134730000000     0.746940000000     0.377060000000     0.0403447  
H90      H      0.082170000000     0.698750000000     0.406600000000     0.0399109  
H91      H      0.040470000000     0.255240000000     0.732620000000     0.101507   
H92      H      0.935970000000     0.315160000000     0.782150000000     0.0999206  
H93      H      0.002630000000     0.323850000000     0.631960000000     0.0372894  
H94      H      0.939840000000     0.300970000000     0.672930000000     0.040586   
H95      H      0.981030000000     0.396180000000     0.704440000000     0.0355896  
H96      H      0.045450000000     0.360830000000     0.729400000000     0.0437609  
Mg1      Mg     0.893050000000     0.027720000000     0.459590000000     0.790497   
Mg2      Mg     0.016000000000     0.950830000000     0.385250000000     0.778239   
Mg3      Mg     0.030820000000     0.068380000000     0.668420000000     0.786311   
Mg4      Mg     0.072180000000     0.872520000000     0.521130000000     0.785777   
Mg5      Mg     0.978360000000     0.145970000000     0.532140000000     0.785183   
Mg6      Mg     0.152860000000     0.985260000000     0.601060000000     0.78302    
Mg7      Mg     0.975250000000     0.518090000000     0.186920000000     0.803764   
Mg8      Mg     0.868830000000     0.474630000000     0.068220000000     0.788497   
Mg9      Mg     0.154630000000     0.528350000000     0.014520000000     0.790073   
Mg10     Mg     0.965770000000     0.373690000000     0.983230000000     0.78672    
Mg11     Mg     0.058820000000     0.626130000000     0.100960000000     0.789416   
Mg12     Mg     0.050790000000     0.479460000000     0.895170000000     0.789819   
Mg13     Mg     0.575060000000     0.557660000000     0.427330000000     0.799679   
Mg14     Mg     0.667770000000     0.468690000000     0.525710000000     0.788204   
Mg15     Mg     0.393460000000     0.566900000000     0.599940000000     0.782842   
Mg16     Mg     0.550780000000     0.378130000000     0.588380000000     0.795141   
Mg17     Mg     0.516260000000     0.656760000000     0.544790000000     0.799949   
Mg18     Mg     0.481970000000     0.472050000000     0.700800000000     0.785089   
Mg19     Mg     0.579710000000     0.958700000000     0.166710000000     0.792917   
Mg20     Mg     0.653490000000     0.027720000000     0.036080000000     0.78897    
Mg21     Mg     0.367690000000     0.949920000000     0.033820000000     0.794386   
Mg22     Mg     0.531640000000     0.127340000000     0.993660000000     0.784356   
Mg23     Mg     0.489720000000     0.855980000000     0.077350000000     0.799559   
Mg24     Mg     0.435040000000     0.028960000000     0.908440000000     0.786637   
N1       N      0.509060000000     0.817190000000     0.274180000000    -0.213329   
N2       N      0.536000000000     0.730550000000     0.360420000000    -0.213915   
N3       N      0.556730000000     0.316970000000     0.778540000000    -0.211573   
N4       N      0.480680000000     0.181740000000     0.804860000000    -0.212977   
N5       N      0.703690000000     0.210410000000     0.027980000000    -0.211614   
N6       N      0.801320000000     0.296760000000     0.051660000000    -0.211729   
N7       N      0.214650000000     0.710510000000     0.028170000000    -0.210291   
N8       N      0.333740000000     0.761960000000     0.020000000000    -0.210659   
N9       N      0.241490000000     0.456980000000     0.853550000000    -0.210705   
N10      N      0.287500000000     0.473110000000     0.732470000000    -0.209284   
N11      N      0.788780000000     0.548050000000     0.234680000000    -0.210086   
N12      N      0.761500000000     0.546910000000     0.370510000000    -0.210454   
N13      N      0.696180000000     0.280470000000     0.507540000000    -0.21149    
N14      N      0.792070000000     0.187690000000     0.486000000000    -0.211505   
N15      N      0.366760000000     0.758230000000     0.613870000000    -0.209187   
N16      N      0.248830000000     0.821010000000     0.581710000000    -0.20887    
N17      N      0.171850000000     0.022060000000     0.797730000000    -0.211043   
N18      N      0.236980000000     0.026710000000     0.914640000000    -0.211056   
N19      N      0.776770000000     0.956250000000     0.176170000000    -0.207915   
N20      N      0.869860000000     0.002480000000     0.259410000000    -0.208359   
N21      N      0.057740000000     0.646300000000     0.305010000000    -0.211225   
N22      N      0.047720000000     0.766590000000     0.356180000000    -0.210174   
N23      N      0.017480000000     0.257040000000     0.692210000000    -0.20951    
N24      N      0.969340000000     0.344780000000     0.780540000000    -0.209161   
O1       O      0.949380000000     0.952020000000     0.458700000000    -0.410602   
O2       O      0.072670000000     0.933180000000     0.598110000000    -0.410516   
O3       O      0.973410000000     0.880490000000     0.517800000000    -0.337781   
O4       O      0.028300000000     0.046050000000     0.387020000000    -0.338669   
O5       O      0.986110000000     0.210000000000     0.608970000000    -0.337742   
O6       O      0.011870000000     0.853870000000     0.373230000000    -0.338684   
O7       O      0.890950000000     0.024330000000     0.561780000000    -0.339569   
O8       O      0.085280000000     0.943520000000     0.456560000000    -0.404295   
O9       O      0.155610000000     0.987900000000     0.704570000000    -0.341405   
O10      O      0.037330000000     0.164760000000     0.678980000000    -0.340556   
O11      O      0.016680000000     0.972470000000     0.667660000000    -0.336273   
O12      O      0.170500000000     0.852910000000     0.530480000000    -0.337185   
O13      O      0.943960000000     0.963110000000     0.313560000000    -0.332408   
O14      O      0.882280000000     0.167540000000     0.520160000000    -0.342927   
O15      O      0.962060000000     0.076710000000     0.599260000000    -0.41056    
O16      O      0.098780000000     0.063330000000     0.596340000000    -0.408731   
O17      O      0.076770000000     0.133580000000     0.534740000000    -0.33867    
O18      O      0.205950000000     0.904340000000     0.605550000000    -0.338785   
O19      O      0.972650000000     0.083150000000     0.458110000000    -0.407491   
O20      O      0.160380000000     0.987640000000     0.497610000000    -0.335138   
O21      O      0.834860000000     0.104720000000     0.464090000000    -0.343386   
O22      O      0.069750000000     0.813880000000     0.441470000000    -0.342769   
O23      O      0.884840000000     0.025760000000     0.356490000000    -0.34042    
O24      O      0.101030000000     0.058390000000     0.738590000000    -0.343771   
O25      O      0.947290000000     0.452610000000     0.123240000000    -0.414409   
O26      O      0.049690000000     0.417930000000     0.971270000000    -0.409895   
O27      O      0.981600000000     0.373450000000     0.084240000000    -0.339811   
O28      O      0.894230000000     0.567090000000     0.061800000000    -0.339391   
O29      O      0.142800000000     0.672370000000     0.083430000000    -0.344838   
O30      O      0.835530000000     0.383930000000     0.069540000000    -0.343958   
O31      O      0.069170000000     0.492310000000     0.172770000000    -0.341268   
O32      O      0.919950000000     0.457440000000     0.985200000000    -0.407602   
O33      O      0.145510000000     0.458550000000     0.874910000000    -0.344449   
O34      O      0.183740000000     0.621260000000     0.010610000000    -0.339252   
O35      O      0.131540000000     0.434700000000     0.021310000000    -0.33602    
O36      O      0.954850000000     0.362010000000     0.879850000000    -0.338344   
O37      O      0.816510000000     0.496860000000     0.153150000000    -0.33965    
O38      O      0.070940000000     0.635420000000     0.204070000000    -0.339379   
O39      O      0.104790000000     0.543250000000     0.097690000000    -0.414385   
O40      O      0.075920000000     0.547080000000     0.959210000000    -0.410302   
O41      O      0.042330000000     0.626300000000     0.999220000000    -0.336864   
O42      O      0.021760000000     0.411240000000     0.829990000000    -0.34087    
O43      O      0.975970000000     0.581430000000     0.112560000000    -0.414005   
O44      O      0.955980000000     0.504530000000     0.907470000000    -0.338564   
O45      O      0.005670000000     0.583290000000     0.252680000000    -0.349399   
O46      O      0.880620000000     0.329230000000     0.002310000000    -0.341442   
O47      O      0.882910000000     0.540250000000     0.208990000000    -0.349501   
O48      O      0.207090000000     0.507920000000     0.931340000000    -0.346321   
O49      O      0.586340000000     0.474680000000     0.469700000000    -0.412687   
O50      O      0.476510000000     0.433700000000     0.610580000000    -0.414923   
O51      O      0.535000000000     0.397880000000     0.489470000000    -0.338483   
O52      O      0.667110000000     0.560860000000     0.553760000000    -0.340884   
O53      O      0.443470000000     0.714260000000     0.573000000000    -0.344084   
O54      O      0.680740000000     0.374930000000     0.504250000000    -0.343105   
O55      O      0.477560000000     0.550480000000     0.437980000000    -0.341821   
O56      O      0.611220000000     0.449840000000     0.603710000000    -0.408888   
O57      O      0.383570000000     0.464390000000     0.713470000000    -0.340602   
O58      O      0.377630000000     0.662590000000     0.621890000000    -0.332963   
O59      O      0.399370000000     0.474660000000     0.569700000000    -0.335917   
O60      O      0.567680000000     0.353470000000     0.686130000000    -0.343666   
O61      O      0.723620000000     0.493150000000     0.445120000000    -0.342096   
O62      O      0.513780000000     0.693610000000     0.450950000000    -0.349242   
O63      O      0.450810000000     0.589590000000     0.524310000000    -0.413424   
O64      O      0.471050000000     0.556990000000     0.660490000000    -0.410417   
O65      O      0.527120000000     0.630670000000     0.642390000000    -0.341921   
O66      O      0.495710000000     0.384760000000     0.743670000000    -0.33981    
O67      O      0.586810000000     0.599040000000     0.517900000000    -0.413011   
O68      O      0.581210000000     0.482870000000     0.692340000000    -0.332818   
O69      O      0.562420000000     0.642210000000     0.384040000000    -0.350394   
O70      O      0.623380000000     0.320540000000     0.559840000000    -0.346986   
O71      O      0.670740000000     0.561910000000     0.404720000000    -0.347254   
O72      O      0.334340000000     0.537250000000     0.675330000000    -0.342243   
O73      O      0.589100000000     0.034510000000     0.111040000000    -0.414336   
O74      O      0.450050000000     0.076460000000     0.993610000000    -0.408675   
O75      O      0.539060000000     0.112830000000     0.094480000000    -0.339066   
O76      O      0.637780000000     0.934860000000     0.020110000000    -0.342843   
O77      O      0.409900000000     0.801370000000     0.067560000000    -0.346123   
O78      O      0.678070000000     0.119840000000     0.043360000000    -0.34681    
O79      O      0.482860000000     0.975700000000     0.172900000000    -0.339346   
O80      O      0.582310000000     0.049010000000     0.970980000000    -0.403637   
O81      O      0.334910000000     0.040240000000     0.913890000000    -0.337547   
O82      O      0.348950000000     0.856310000000     0.016890000000    -0.341827   
O83      O      0.380710000000     0.044130000000     0.053770000000    -0.335792   
O84      O      0.519840000000     0.151870000000     0.893320000000    -0.338525   
O85      O      0.724690000000     0.002770000000     0.104200000000    -0.333982   
O86      O      0.494310000000     0.835730000000     0.176590000000    -0.348935   
O87      O      0.436760000000     0.931750000000     0.098680000000    -0.416659   
O88      O      0.432870000000     0.949320000000     0.959750000000    -0.412925   
O89      O      0.486350000000     0.872730000000     0.975970000000    -0.337311   
O90      O      0.441170000000     0.109780000000     0.856000000000    -0.347043   
O91      O      0.569320000000     0.906590000000     0.083080000000    -0.415235   
O92      O      0.532760000000     0.014290000000     0.893680000000    -0.334655   
O93      O      0.563130000000     0.882920000000     0.226070000000    -0.344297   
O94      O      0.615420000000     0.178340000000     0.999240000000    -0.341429   
O95      O      0.679340000000     0.946680000000     0.169820000000    -0.338715   
O96      O      0.296070000000     0.972660000000     0.970360000000    -0.349606   


