data_structure

_audit_creation_method RASPA-1.0
_audit_creation_date 2023-5-19
_audit_author_name 'Poobodin Mano'

_cell_length_a    26.5054
_cell_length_b    23.9746
_cell_length_c    24.1796
_cell_angle_alpha 90
_cell_angle_beta  90
_cell_angle_gamma 90
_cell_volume      15365.1

_symmetry_cell_setting          triclinic
_symmetry_space_group_name_Hall 'P 1'
_symmetry_space_group_name_H-M  'P 1'
_symmetry_Int_Tables_number     1

_symmetry_equiv_pos_as_xyz 'x,y,z'

loop_
_atom_site_label
_atom_site_type_symbol
_atom_site_fract_x
_atom_site_fract_y
_atom_site_fract_z
_atom_site_charge
C1       C      0.915020000000     0.931240000000     0.123730000000     0.400662   
C2       C      0.920010000000     0.133400000000     0.926350000000     0.400746   
C3       C      0.919140000000     0.133300000000     0.128450000000     0.401708   
C4       C      0.921180000000     0.930940000000     0.923290000000     0.399835   
C5       C      0.055770000000     0.937170000000     0.933980000000     0.396157   
C6       C      0.045530000000     0.131350000000     0.129360000000     0.39654    
C7       C      0.049240000000     0.933680000000     0.125030000000     0.395731   
C8       C      0.056560000000     0.126190000000     0.933580000000     0.394648   
C9       C      0.408220000000     0.623670000000     0.432330000000     0.394017   
C10      C      0.410310000000     0.435950000000     0.619260000000     0.395022   
C11      C      0.410190000000     0.434950000000     0.435200000000     0.392169   
C12      C      0.413390000000     0.630810000000     0.622220000000     0.396925   
C13      C      0.548190000000     0.631110000000     0.624800000000     0.399381   
C14      C      0.548650000000     0.432760000000     0.426920000000     0.40264    
C15      C      0.542830000000     0.634010000000     0.423920000000     0.400654   
C16      C      0.545410000000     0.431630000000     0.629920000000     0.400486   
C17      C      0.114050000000     0.250090000000     0.191590000000    -0.0918836  
C18      C      0.360110000000     0.352980000000     0.424470000000     0.071875   
C19      C      0.347550000000     0.429990000000     0.364490000000     0.0716638  
C20      C      0.323180000000     0.322440000000     0.396420000000    -0.0914758  
C21      C      0.269100000000     0.260210000000     0.302050000000    -0.0348327  
C22      C      0.233030000000     0.230480000000     0.271800000000    -0.0335449  
C23      C      0.258720000000     0.314340000000     0.321050000000    -0.00554426 
C24      C      0.309750000000     0.400980000000     0.336220000000    -0.0912439  
C25      C      0.185330000000     0.253810000000     0.260580000000    -0.00518794 
C26      C      0.143160000000     0.164210000000     0.231490000000    -0.0892412  
C27      C      0.174860000000     0.307790000000     0.280610000000    -0.0336634  
C28      C      0.108380000000     0.135270000000     0.198950000000     0.0752661  
C29      C      0.078690000000     0.220160000000     0.160240000000     0.0943935  
C30      C      0.211290000000     0.337860000000     0.310010000000    -0.0348837  
C31      C      0.041930000000     0.252690000000     0.129740000000     0.054234   
C32      C      0.297560000000     0.346390000000     0.351760000000     0.049536   
C33      C      0.147100000000     0.222320000000     0.227500000000     0.0524692  
C34      C      0.154710000000     0.228910000000     0.894420000000    -0.0937924  
C35      C      0.354260000000     0.358370000000     0.625600000000     0.0725142  
C36      C      0.357260000000     0.425000000000     0.698020000000     0.0729657  
C37      C      0.318820000000     0.326880000000     0.654860000000    -0.0913664  
C38      C      0.223570000000     0.288200000000     0.716670000000    -0.0348437  
C39      C      0.189840000000     0.256880000000     0.748540000000    -0.0339433  
C40      C      0.267690000000     0.310040000000     0.740470000000    -0.00560148 
C41      C      0.322400000000     0.394190000000     0.728630000000    -0.091432   
C42      C      0.199790000000     0.246260000000     0.804760000000    -0.00603338 
C43      C      0.137280000000     0.168470000000     0.817750000000    -0.0913977  
C44      C      0.244560000000     0.267310000000     0.828060000000    -0.0340128  
C45      C      0.102860000000     0.139470000000     0.850640000000     0.0720904  
C46      C      0.120550000000     0.198640000000     0.926930000000     0.0880828  
C47      C      0.277910000000     0.299090000000     0.796390000000    -0.0346466  
C48      C      0.118830000000     0.213430000000     0.984800000000     0.0479329  
C49      C      0.303120000000     0.344280000000     0.707350000000     0.0501285  
C50      C      0.163350000000     0.214210000000     0.839270000000     0.0519438  
C51      C      0.132300000000     0.886190000000     0.239050000000    -0.0946279  
C52      C      0.354430000000     0.631020000000     0.353720000000     0.0725801  
C53      C      0.350240000000     0.699360000000     0.424430000000     0.0721358  
C54      C      0.318130000000     0.659540000000     0.322910000000    -0.0912902  
C55      C      0.266650000000     0.748720000000     0.253140000000    -0.0348389  
C56      C      0.231880000000     0.779750000000     0.222410000000    -0.0341662  
C57      C      0.259810000000     0.740830000000     0.310270000000    -0.00527091 
C58      C      0.313590000000     0.728750000000     0.394840000000    -0.0892159  
C59      C      0.189370000000     0.803410000000     0.248090000000    -0.00632369 
C60      C      0.138830000000     0.823210000000     0.162290000000    -0.0917018  
C61      C      0.182170000000     0.794650000000     0.305100000000    -0.0340851  
C62      C      0.104350000000     0.856050000000     0.133190000000     0.0710101  
C63      C      0.097480000000     0.918330000000     0.209330000000     0.0873988  
C64      C      0.217070000000     0.763910000000     0.335850000000    -0.0347428  
C65      C      0.076180000000     0.965500000000     0.238650000000     0.0490625  
C66      C      0.297480000000     0.709200000000     0.343180000000     0.0495925  
C67      C      0.153110000000     0.838000000000     0.215940000000     0.0517695  
C68      C      0.835380000000     0.180490000000     0.241640000000    -0.0950154  
C69      C      0.599210000000     0.423310000000     0.346040000000     0.0735658  
C70      C      0.604920000000     0.355910000000     0.417590000000     0.0736199  
C71      C      0.636180000000     0.395450000000     0.315640000000    -0.0922403  
C72      C      0.694190000000     0.308820000000     0.248810000000    -0.0347843  
C73      C      0.731810000000     0.280220000000     0.219960000000    -0.034167   
C74      C      0.698640000000     0.317730000000     0.306030000000    -0.00597637 
C75      C      0.642160000000     0.327220000000     0.388420000000    -0.0921825  
C76      C      0.774720000000     0.260130000000     0.247740000000    -0.0063865  
C77      C      0.829390000000     0.243520000000     0.164770000000    -0.0918624  
C78      C      0.779470000000     0.269900000000     0.304830000000    -0.0341818  
C79      C      0.865220000000     0.211730000000     0.136710000000     0.074202   
C80      C      0.871490000000     0.149310000000     0.212860000000     0.0891198  
C81      C      0.741780000000     0.298270000000     0.333670000000    -0.0345655  
C82      C      0.893380000000     0.102770000000     0.242640000000     0.0491037  
C83      C      0.658380000000     0.347090000000     0.336980000000     0.0506611  
C84      C      0.813750000000     0.227780000000     0.217640000000     0.0528826  
C85      C      0.837150000000     0.885700000000     0.809190000000    -0.0947205  
C86      C      0.599720000000     0.641670000000     0.704970000000     0.0725994  
C87      C      0.604160000000     0.708600000000     0.633050000000     0.0731016  
C88      C      0.636570000000     0.670310000000     0.734980000000    -0.0887783  
C89      C      0.735310000000     0.720840000000     0.774110000000    -0.0347663  
C90      C      0.772780000000     0.749750000000     0.803060000000    -0.0340085  
C91      C      0.697790000000     0.749860000000     0.744610000000    -0.004544   
C92      C      0.641200000000     0.738180000000     0.661880000000    -0.0884989  
C93      C      0.773800000000     0.808360000000     0.802990000000    -0.00637729 
C94      C      0.829130000000     0.823010000000     0.886020000000    -0.0917731  
C95      C      0.736260000000     0.837380000000     0.773660000000    -0.033849   
C96      C      0.865700000000     0.853720000000     0.914330000000     0.0716245  
C97      C      0.874060000000     0.915720000000     0.838170000000     0.0878484  
C98      C      0.698700000000     0.808510000000     0.744920000000    -0.0346179  
C99      C      0.897700000000     0.961150000000     0.808350000000     0.0472092  
C100     C      0.658020000000     0.719130000000     0.713500000000     0.0491912  
C101     C      0.813890000000     0.839330000000     0.833160000000     0.0519237  
C102     C      0.630810000000     0.387840000000     0.743330000000    -0.0950344  
C103     C      0.869200000000     0.144480000000     0.845730000000     0.0725935  
C104     C      0.866310000000     0.212580000000     0.916700000000     0.0732359  
C105     C      0.832730000000     0.173470000000     0.815540000000    -0.0893718  
C106     C      0.733940000000     0.224100000000     0.777490000000    -0.034684   
C107     C      0.695970000000     0.252730000000     0.749140000000    -0.0342285  
C108     C      0.771980000000     0.253400000000     0.805860000000    -0.00509984 
C109     C      0.829600000000     0.242470000000     0.887720000000    -0.0903499  
C110     C      0.694960000000     0.311320000000     0.748780000000    -0.00655496 
C111     C      0.639130000000     0.325360000000     0.666340000000    -0.0922402  
C112     C      0.732950000000     0.340660000000     0.777020000000    -0.034252   
C113     C      0.602020000000     0.355480000000     0.638380000000     0.0719495  
C114     C      0.593250000000     0.417240000000     0.714710000000     0.0878786  
C115     C      0.771080000000     0.312060000000     0.805100000000    -0.0347697  
C116     C      0.569190000000     0.462240000000     0.744740000000     0.0467386  
C117     C      0.812060000000     0.222880000000     0.836610000000     0.0494856  
C118     C      0.654440000000     0.341860000000     0.719060000000     0.052107   
C119     C      0.328700000000     0.744460000000     0.668780000000    -0.0950959  
C120     C      0.108890000000     0.857500000000     0.924860000000     0.0727492  
C121     C      0.112300000000     0.929550000000     0.857790000000     0.0733313  
C122     C      0.144280000000     0.826370000000     0.895270000000    -0.0913309  
C123     C      0.196740000000     0.812740000000     0.754340000000    -0.0344641  
C124     C      0.231060000000     0.781940000000     0.722970000000    -0.0342329  
C125     C      0.200180000000     0.813720000000     0.812370000000    -0.0054973  
C126     C      0.147850000000     0.899610000000     0.827290000000    -0.090926   
C127     C      0.269480000000     0.751180000000     0.748880000000    -0.0064607  
C128     C      0.321320000000     0.665950000000     0.729840000000    -0.0920911  
C129     C      0.272620000000     0.751490000000     0.806890000000    -0.034245   
C130     C      0.356770000000     0.637500000000     0.697860000000     0.0719214  
C131     C      0.364630000000     0.715400000000     0.637560000000     0.088005   
C132     C      0.238410000000     0.782540000000     0.838310000000    -0.0346084  
C133     C      0.387420000000     0.746120000000     0.592400000000     0.048717   
C134     C      0.163860000000     0.847050000000     0.845530000000     0.0501061  
C135     C      0.306790000000     0.719920000000     0.715310000000     0.0523772  
C136     C      0.626330000000     0.747970000000     0.375500000000    -0.0945632  
C137     C      0.863280000000     0.850480000000     0.133260000000     0.0735099  
C138     C      0.858730000000     0.922660000000     0.200110000000     0.0732781  
C139     C      0.826060000000     0.820310000000     0.161130000000    -0.0912182  
C140     C      0.767680000000     0.753500000000     0.247500000000    -0.0347425  
C141     C      0.729960000000     0.724820000000     0.276210000000    -0.0340065  
C142     C      0.763840000000     0.811290000000     0.238740000000    -0.00524183 
C143     C      0.821210000000     0.893770000000     0.228770000000    -0.0896032  
C144     C      0.687430000000     0.753280000000     0.296570000000    -0.0063033  
C145     C      0.632570000000     0.669690000000     0.314050000000    -0.0919495  
C146     C      0.683290000000     0.810960000000     0.286960000000    -0.0339497  
C147     C      0.596700000000     0.641670000000     0.345910000000     0.0719898  
C148     C      0.590190000000     0.719240000000     0.406750000000     0.0883294  
C149     C      0.721110000000     0.839640000000     0.258540000000    -0.034593   
C150     C      0.568540000000     0.749660000000     0.452770000000     0.0488649  
C151     C      0.804290000000     0.842070000000     0.209250000000     0.0500709  
C152     C      0.648180000000     0.723260000000     0.328950000000     0.0521751  
Co1      Co     0.981980000000     0.949120000000     0.026390000000     0.835184   
Co2      Co     0.982630000000     0.114900000000     0.027690000000     0.834706   
Co3      Co     0.981160000000     0.031360000000     0.108370000000     0.846452   
Co4      Co     0.983680000000     0.032370000000     0.945180000000     0.849432   
Co5      Co     0.482110000000     0.614050000000     0.525890000000     0.843911   
Co6      Co     0.484420000000     0.448730000000     0.527120000000     0.841073   
Co7      Co     0.481800000000     0.530980000000     0.445170000000     0.838663   
Co8      Co     0.481450000000     0.532100000000     0.608140000000     0.841375   
H1       H      0.356130000000     0.471970000000     0.350710000000     0.0316344  
H2       H      0.108090000000     0.090190000000     0.202470000000     0.0377987  
H3       H      0.202130000000     0.379300000000     0.324780000000     0.0398208  
H4       H      0.243050000000     0.189580000000     0.256340000000     0.0395382  
H5       H      0.166810000000     0.140820000000     0.259680000000     0.0560062  
H6       H      0.305600000000     0.241330000000     0.309520000000     0.0403756  
H7       H      0.115600000000     0.295110000000     0.187730000000     0.0597224  
H8       H      0.290860000000     0.420810000000     0.301690000000     0.0543019  
H9       H      0.314460000000     0.280440000000     0.409920000000     0.0543741  
H10      H      0.138330000000     0.326870000000     0.274100000000     0.0399401  
H11      H      0.378950000000     0.332810000000     0.458890000000     0.03207    
H12      H      0.371440000000     0.463200000000     0.716330000000     0.0333882  
H13      H      0.083240000000     0.104940000000     0.831220000000     0.0352033  
H14      H      0.312100000000     0.314600000000     0.815540000000     0.0406164  
H15      H      0.155470000000     0.241990000000     0.729360000000     0.0398024  
H16      H      0.143510000000     0.154710000000     0.775640000000     0.0546599  
H17      H      0.214630000000     0.296360000000     0.673710000000     0.0396106  
H18      H      0.174600000000     0.264050000000     0.912430000000     0.0588081  
H19      H      0.310600000000     0.409410000000     0.768780000000     0.0548955  
H20      H      0.304800000000     0.288410000000     0.637080000000     0.0543905  
H21      H      0.254160000000     0.258910000000     0.870780000000     0.0397349  
H22      H      0.366020000000     0.342940000000     0.585460000000     0.0320596  
H23      H      0.361970000000     0.716250000000     0.463940000000     0.0404738  
H24      H      0.094800000000     0.842480000000     0.091700000000     0.0325103  
H25      H      0.210340000000     0.757770000000     0.379620000000     0.0397194  
H26      H      0.238950000000     0.786250000000     0.178770000000     0.0385652  
H27      H      0.153630000000     0.785900000000     0.142930000000     0.0536786  
H28      H      0.299550000000     0.731970000000     0.232380000000     0.0397674  
H29      H      0.143220000000     0.898990000000     0.280400000000     0.0583422  
H30      H      0.298770000000     0.767190000000     0.411870000000     0.0561783  
H31      H      0.306150000000     0.642550000000     0.283530000000     0.0536633  
H32      H      0.149320000000     0.811260000000     0.326030000000     0.0404043  
H33      H      0.369470000000     0.592840000000     0.336230000000     0.0321998  
H34      H      0.593650000000     0.339170000000     0.457380000000     0.0311653  
H35      H      0.875460000000     0.225650000000     0.095530000000     0.0354434  
H36      H      0.746650000000     0.305420000000     0.377580000000     0.0396366  
H37      H      0.726720000000     0.272720000000     0.176140000000     0.0390939  
H38      H      0.814170000000     0.280440000000     0.145060000000     0.0552284  
H39      H      0.661100000000     0.322900000000     0.226540000000     0.0394002  
H40      H      0.823770000000     0.167400000000     0.282670000000     0.0585935  
H41      H      0.657940000000     0.289480000000     0.405970000000     0.0544444  
H42      H      0.647970000000     0.412370000000     0.276160000000     0.0540197  
H43      H      0.812490000000     0.255880000000     0.327250000000     0.0403778  
H44      H      0.583440000000     0.460980000000     0.328230000000     0.0312961  
H45      H      0.592680000000     0.724700000000     0.593090000000     0.0403209  
H46      H      0.875130000000     0.839690000000     0.955690000000     0.0326051  
H47      H      0.669940000000     0.832260000000     0.723530000000     0.0406167  
H48      H      0.801530000000     0.726170000000     0.824680000000     0.0393078  
H49      H      0.812020000000     0.787360000000     0.906170000000     0.0542021  
H50      H      0.736280000000     0.675680000000     0.774100000000     0.0394995  
H51      H      0.827070000000     0.898070000000     0.767440000000     0.0584868  
H52      H      0.657130000000     0.775280000000     0.643230000000     0.0560485  
H53      H      0.647750000000     0.654440000000     0.775080000000     0.0553993  
H54      H      0.735510000000     0.882550000000     0.773530000000     0.0400485  
H55      H      0.584330000000     0.604090000000     0.723270000000     0.0398992  
H56      H      0.878240000000     0.229020000000     0.956380000000     0.0334054  
H57      H      0.592530000000     0.341290000000     0.597090000000     0.0325602  
H58      H      0.800210000000     0.336000000000     0.825660000000     0.0395373  
H59      H      0.666860000000     0.228980000000     0.728330000000     0.0396068  
H60      H      0.656560000000     0.289990000000     0.646030000000     0.0544037  
H61      H      0.732910000000     0.178950000000     0.777970000000     0.0396239  
H62      H      0.641100000000     0.400320000000     0.784980000000     0.0580702  
H63      H      0.814330000000     0.280080000000     0.906020000000     0.0540511  
H64      H      0.821050000000     0.157240000000     0.775750000000     0.0556162  
H65      H      0.733590000000     0.385840000000     0.776780000000     0.0396325  
H66      H      0.883830000000     0.106290000000     0.827920000000     0.0395763  
H67      H      0.100750000000     0.969850000000     0.841830000000     0.0337992  
H68      H      0.366130000000     0.595450000000     0.710830000000     0.0338392  
H69      H      0.242520000000     0.782940000000     0.882860000000     0.0386987  
H70      H      0.227270000000     0.781800000000     0.678360000000     0.0397549  
H71      H      0.304920000000     0.645380000000     0.765450000000     0.0546672  
H72      H      0.167140000000     0.835310000000     0.733080000000     0.0401383  
H73      H      0.318770000000     0.786920000000     0.657590000000     0.0587257  
H74      H      0.162750000000     0.917740000000     0.789650000000     0.0546044  
H75      H      0.155270000000     0.785760000000     0.910740000000     0.0537126  
H76      H      0.302240000000     0.728720000000     0.827930000000     0.0398821  
H77      H      0.094290000000     0.839530000000     0.962780000000     0.0317236  
H78      H      0.870510000000     0.962610000000     0.216620000000     0.0404272  
H79      H      0.586590000000     0.599950000000     0.332610000000     0.0324586  
H80      H      0.716660000000     0.884000000000     0.251580000000     0.0402408  
H81      H      0.734700000000     0.680570000000     0.283550000000     0.0391168  
H82      H      0.647830000000     0.649320000000     0.277740000000     0.0539936  
H83      H      0.800430000000     0.730620000000     0.233210000000     0.0397283  
H84      H      0.637910000000     0.789480000000     0.388090000000     0.0586182  
H85      H      0.805810000000     0.911730000000     0.266250000000     0.0566247  
H86      H      0.813760000000     0.780650000000     0.144430000000     0.0540044  
H87      H      0.650600000000     0.834010000000     0.301110000000     0.0401926  
H88      H      0.878700000000     0.832290000000     0.095840000000     0.0315699  
N1       N      0.077230000000     0.162470000000     0.162380000000    -0.187291   
N2       N      0.372670000000     0.406170000000     0.408260000000    -0.188757   
N3       N      0.007420000000     0.283090000000     0.101310000000    -0.0887688  
N4       N      0.093370000000     0.154710000000     0.904610000000    -0.188449   
N5       N      0.373810000000     0.406760000000     0.647290000000    -0.189443   
N6       N      0.119950000000     0.228100000000     0.038850000000    -0.0901622  
N7       N      0.083510000000     0.903400000000     0.155960000000    -0.188533   
N8       N      0.370910000000     0.651110000000     0.403820000000    -0.188411   
N9       N      0.056080000000     0.009140000000     0.266760000000    -0.0871861  
N10      N      0.885780000000     0.164320000000     0.159660000000    -0.189206   
N11      N      0.583910000000     0.403920000000     0.396820000000    -0.1913     
N12      N      0.913970000000     0.059540000000     0.270940000000    -0.0881542  
N13      N      0.887600000000     0.900520000000     0.891570000000    -0.189119   
N14      N      0.583700000000     0.660490000000     0.654250000000    -0.188246   
N15      N      0.919890000000     0.003330000000     0.779950000000    -0.092994   
N16      N      0.579590000000     0.401840000000     0.661410000000    -0.189377   
N17      N      0.885600000000     0.163580000000     0.896190000000    -0.189409   
N18      N      0.546570000000     0.503980000000     0.773370000000    -0.0930868  
N19      N      0.378480000000     0.661420000000     0.651840000000    -0.188794   
N20      N      0.092450000000     0.908370000000     0.905880000000    -0.189724   
N21      N      0.408950000000     0.775500000000     0.550670000000    -0.0883722  
N22      N      0.575980000000     0.665340000000     0.392580000000    -0.189211   
N23      N      0.879360000000     0.901440000000     0.152420000000    -0.189567   
N24      N      0.548240000000     0.778540000000     0.495590000000    -0.0884096  
O1       O      0.932220000000     0.912040000000     0.078130000000    -0.363375   
O2       O      0.935340000000     0.152070000000     0.972990000000    -0.362404   
O3       O      0.934360000000     0.085970000000     0.145920000000    -0.356361   
O4       O      0.937360000000     0.978040000000     0.906110000000    -0.358495   
O5       O      0.934260000000     0.151870000000     0.081610000000    -0.354179   
O6       O      0.934950000000     0.912450000000     0.970670000000    -0.361399   
O7       O      0.935620000000     0.086410000000     0.908020000000    -0.360427   
O8       O      0.930250000000     0.978240000000     0.142510000000    -0.357405   
O9       O      0.037450000000     0.916800000000     0.978560000000    -0.369275   
O10      O      0.027970000000     0.152180000000     0.084590000000    -0.351457   
O11      O      0.032540000000     0.980110000000     0.143160000000    -0.363768   
O12      O      0.037680000000     0.081870000000     0.912700000000    -0.366788   
O13      O      0.040050000000     0.144980000000     0.979780000000    -0.363366   
O14      O      0.033960000000     0.914800000000     0.078330000000    -0.364722   
O15      O      0.039390000000     0.983400000000     0.914550000000    -0.366892   
O16      O      0.033860000000     0.081600000000     0.143780000000    -0.359795   
O17      O      0.961840000000     0.032080000000     0.026350000000    -0.593037   
O18      O      0.425130000000     0.643990000000     0.477720000000    -0.361485   
O19      O      0.428320000000     0.416260000000     0.574200000000    -0.366939   
O20      O      0.424710000000     0.482290000000     0.416550000000    -0.366498   
O21      O      0.428340000000     0.583570000000     0.640770000000    -0.366838   
O22      O      0.430630000000     0.413910000000     0.478390000000    -0.364521   
O23      O      0.430840000000     0.649610000000     0.576680000000    -0.361583   
O24      O      0.426870000000     0.481870000000     0.639240000000    -0.367979   
O25      O      0.426460000000     0.578540000000     0.412540000000    -0.366146   
O26      O      0.533170000000     0.649410000000     0.577860000000    -0.356506   
O27      O      0.534570000000     0.414110000000     0.474040000000    -0.366318   
O28      O      0.529030000000     0.585700000000     0.407010000000    -0.3615     
O29      O      0.528050000000     0.478100000000     0.647450000000    -0.356268   
O30      O      0.532310000000     0.413190000000     0.582330000000    -0.364223   
O31      O      0.526990000000     0.652550000000     0.470250000000    -0.357518   
O32      O      0.530860000000     0.585360000000     0.644340000000    -0.358192   
O33      O      0.530840000000     0.478460000000     0.407900000000    -0.366894   
O34      O      0.503540000000     0.531730000000     0.526680000000    -0.590462   


