data_structure

_audit_creation_method RASPA-1.0
_audit_creation_date 2023-5-19
_audit_author_name 'Poobodin Mano'

_cell_length_a    24.207
_cell_length_b    24.4747
_cell_length_c    26.0878
_cell_angle_alpha 90
_cell_angle_beta  90
_cell_angle_gamma 90
_cell_volume      15456

_symmetry_cell_setting          triclinic
_symmetry_space_group_name_Hall 'P 1'
_symmetry_space_group_name_H-M  'P 1'
_symmetry_Int_Tables_number     1

_symmetry_equiv_pos_as_xyz 'x,y,z'

loop_
_atom_site_label
_atom_site_type_symbol
_atom_site_fract_x
_atom_site_fract_y
_atom_site_fract_z
_atom_site_charge
C1       C      0.926790000000     0.922120000000     0.053740000000     0.400056   
C2       C      0.127100000000     0.120000000000     0.053950000000     0.402498   
C3       C      0.126550000000     0.921550000000     0.053940000000     0.401812   
C4       C      0.926810000000     0.119640000000     0.054140000000     0.424475   
C5       C      0.932130000000     0.114950000000     0.916770000000     0.39651    
C6       C      0.121860000000     0.927350000000     0.916770000000     0.394035   
C7       C      0.932640000000     0.927020000000     0.916410000000     0.395563   
C8       C      0.122240000000     0.114890000000     0.917090000000     0.418379   
C9       C      0.621360000000     0.615320000000     0.561720000000     0.419056   
C10      C      0.431790000000     0.427450000000     0.561010000000     0.395522   
C11      C      0.431590000000     0.615080000000     0.560860000000     0.418734   
C12      C      0.621660000000     0.427430000000     0.561820000000     0.419452   
C13      C      0.627320000000     0.422170000000     0.424580000000     0.401279   
C14      C      0.427810000000     0.620570000000     0.423660000000     0.424591   
C15      C      0.627240000000     0.619830000000     0.424160000000     0.42422    
C16      C      0.427040000000     0.422410000000     0.423720000000     0.42537    
C17      C      0.317610000000     0.381450000000     0.333680000000    -0.217699   
C18      C      0.207010000000     0.130580000000     0.106400000000     0.0759055  
C19      C      0.137760000000     0.199100000000     0.106300000000     0.075099   
C20      C      0.237550000000     0.159790000000     0.142590000000    -0.0895609  
C21      C      0.274920000000     0.213870000000     0.241470000000    -0.0381093  
C22      C      0.303970000000     0.243310000000     0.278600000000    -0.0226193  
C23      C      0.249180000000     0.240950000000     0.200370000000    -0.000497937
C24      C      0.167280000000     0.229360000000     0.142450000000    -0.0899918  
C25      C      0.307920000000     0.300510000000     0.275500000000    -0.0257816  
C26      C      0.388780000000     0.312990000000     0.334520000000    -0.125457   
C27      C      0.282390000000     0.327560000000     0.234280000000    -0.0222731  
C28      C      0.417320000000     0.343610000000     0.371080000000     0.096334   
C29      C      0.347030000000     0.411200000000     0.370310000000     0.415078   
C30      C      0.253360000000     0.298130000000     0.197150000000    -0.0377678  
C31      C      0.217710000000     0.209720000000     0.161230000000     0.050506   
C32      C      0.338450000000     0.331950000000     0.315120000000     0.109881   
C33      C      0.231900000000     0.156050000000     0.827210000000    -0.217692   
C34      C      0.352880000000     0.417990000000     0.615060000000     0.0740863  
C35      C      0.422530000000     0.349920000000     0.615660000000     0.0747685  
C36      C      0.321750000000     0.388200000000     0.650470000000    -0.0817459  
C37      C      0.250400000000     0.300420000000     0.699600000000    -0.0384911  
C38      C      0.219300000000     0.268650000000     0.733530000000    -0.0220104  
C39      C      0.308000000000     0.304860000000     0.705320000000     0.00132385 
C40      C      0.392480000000     0.319140000000     0.651080000000    -0.0877185  
C41      C      0.245050000000     0.240500000000     0.773980000000    -0.0259961  
C42      C      0.160860000000     0.224610000000     0.828230000000    -0.125248   
C43      C      0.302620000000     0.245140000000     0.779830000000    -0.0221382  
C44      C      0.131260000000     0.192930000000     0.863280000000     0.0943237  
C45      C      0.201340000000     0.125170000000     0.862250000000     0.412876   
C46      C      0.333700000000     0.276920000000     0.745930000000    -0.0382768  
C47      C      0.341210000000     0.337910000000     0.668680000000     0.0488499  
C48      C      0.212100000000     0.206590000000     0.810110000000     0.108783   
C49      C      0.387540000000     0.729700000000     0.334180000000    -0.216589   
C50      C      0.136650000000     0.842120000000     0.105880000000     0.074774   
C51      C      0.206060000000     0.910470000000     0.106830000000     0.074859   
C52      C      0.165760000000     0.811550000000     0.142070000000    -0.0902744  
C53      C      0.219270000000     0.773560000000     0.241040000000    -0.0374465  
C54      C      0.248550000000     0.744240000000     0.278110000000    -0.0227436  
C55      C      0.247170000000     0.799330000000     0.200410000000    -0.000766241
C56      C      0.236260000000     0.880890000000     0.143020000000    -0.0897597  
C57      C      0.306380000000     0.740070000000     0.275400000000    -0.0243413  
C58      C      0.318160000000     0.659440000000     0.333810000000    -0.11913    
C59      C      0.334240000000     0.765650000000     0.234650000000    -0.022476   
C60      C      0.348670000000     0.630790000000     0.370410000000     0.0971191  
C61      C      0.417160000000     0.700190000000     0.370820000000     0.416261   
C62      C      0.304980000000     0.794950000000     0.197600000000    -0.037518   
C63      C      0.216090000000     0.830910000000     0.161270000000     0.0504297  
C64      C      0.337660000000     0.709360000000     0.315010000000     0.109491   
C65      C      0.817250000000     0.160580000000     0.144160000000    -0.217899   
C66      C      0.707310000000     0.411510000000     0.372180000000     0.0756852  
C67      C      0.637890000000     0.343190000000     0.372050000000     0.0756161  
C68      C      0.737810000000     0.382300000000     0.335910000000    -0.0836002  
C69      C      0.775200000000     0.328250000000     0.236910000000    -0.0384854  
C70      C      0.804070000000     0.298760000000     0.199660000000    -0.0220005  
C71      C      0.749240000000     0.301180000000     0.277900000000     0.0010131  
C72      C      0.667360000000     0.312930000000     0.335840000000    -0.088459   
C73      C      0.807640000000     0.241500000000     0.202520000000    -0.0260969  
C74      C      0.888550000000     0.228910000000     0.143540000000    -0.125525   
C75      C      0.781880000000     0.214470000000     0.243630000000    -0.0219147  
C76      C      0.917090000000     0.198320000000     0.106960000000     0.0954629  
C77      C      0.846700000000     0.130850000000     0.107490000000     0.413716   
C78      C      0.753030000000     0.243950000000     0.280870000000    -0.0382053  
C79      C      0.717860000000     0.332460000000     0.317120000000     0.0496027  
C80      C      0.838140000000     0.210030000000     0.162850000000     0.109338   
C81      C      0.661000000000     0.723610000000     0.652400000000    -0.21596    
C82      C      0.924120000000     0.849260000000     0.862000000000     0.0735669  
C83      C      0.853950000000     0.916850000000     0.862270000000     0.0737342  
C84      C      0.894220000000     0.817960000000     0.826900000000    -0.0900735  
C85      C      0.752050000000     0.797230000000     0.780300000000    -0.0375928  
C86      C      0.720700000000     0.765280000000     0.746790000000    -0.0227124  
C87      C      0.809430000000     0.802410000000     0.773560000000    -0.000820018
C88      C      0.822940000000     0.886500000000     0.827230000000    -0.0895393  
C89      C      0.745970000000     0.737760000000     0.705700000000    -0.0239882  
C90      C      0.731700000000     0.654690000000     0.650730000000    -0.117494   
C91      C      0.803400000000     0.742750000000     0.699080000000    -0.0229436  
C92      C      0.700190000000     0.625120000000     0.615490000000     0.0957619  
C93      C      0.630410000000     0.693190000000     0.617100000000     0.415525   
C94      C      0.834770000000     0.774690000000     0.732630000000    -0.0375025  
C95      C      0.842710000000     0.836160000000     0.809460000000     0.0498689  
C96      C      0.712420000000     0.704800000000     0.669350000000     0.108551   
C97      C      0.730510000000     0.386850000000     0.652690000000    -0.217189   
C98      C      0.853500000000     0.124410000000     0.862440000000     0.0750255  
C99      C      0.922600000000     0.193050000000     0.862890000000     0.0740093  
C100     C      0.822190000000     0.154470000000     0.827410000000    -0.0891071  
C101     C      0.803270000000     0.295550000000     0.780840000000    -0.0378789  
C102     C      0.771640000000     0.327080000000     0.747190000000    -0.0224412  
C103     C      0.807570000000     0.238700000000     0.774160000000    -0.000439817
C104     C      0.892300000000     0.224170000000     0.827930000000    -0.0898118  
C105     C      0.743540000000     0.302540000000     0.706030000000    -0.0256772  
C106     C      0.659880000000     0.317880000000     0.650950000000    -0.12518    
C107     C      0.747640000000     0.245650000000     0.699470000000    -0.0227599  
C108     C      0.630470000000     0.349420000000     0.615680000000     0.0951055  
C109     C      0.700210000000     0.417520000000     0.617330000000     0.414077   
C110     C      0.779270000000     0.214100000000     0.733150000000    -0.0383058  
C111     C      0.841190000000     0.205270000000     0.810080000000     0.0499785  
C112     C      0.710780000000     0.336230000000     0.669620000000     0.109073   
C113     C      0.321850000000     0.656080000000     0.650680000000    -0.215408   
C114     C      0.200600000000     0.917940000000     0.862550000000     0.0718637  
C115     C      0.130950000000     0.849870000000     0.862040000000     0.073577   
C116     C      0.231670000000     0.888170000000     0.827100000000    -0.0830004  
C117     C      0.303040000000     0.800450000000     0.778110000000    -0.037471   
C118     C      0.334180000000     0.768740000000     0.744180000000    -0.0225773  
C119     C      0.245430000000     0.804820000000     0.772360000000     0.000591665
C120     C      0.160950000000     0.819090000000     0.826590000000    -0.0884379  
C121     C      0.308470000000     0.740570000000     0.703730000000    -0.0237314  
C122     C      0.392610000000     0.724930000000     0.649400000000    -0.116894   
C123     C      0.250900000000     0.745090000000     0.697870000000    -0.0224557  
C124     C      0.422280000000     0.693280000000     0.614400000000     0.0955645  
C125     C      0.352490000000     0.625220000000     0.615700000000     0.415268   
C126     C      0.219770000000     0.776830000000     0.731760000000    -0.0372935  
C127     C      0.212200000000     0.837870000000     0.808950000000     0.0486506  
C128     C      0.341470000000     0.706720000000     0.667630000000     0.108365   
C129     C      0.736880000000     0.660870000000     0.334310000000    -0.215873   
C130     C      0.846790000000     0.911430000000     0.106100000000     0.0738523  
C131     C      0.916380000000     0.843270000000     0.106460000000     0.0745634  
C132     C      0.816310000000     0.882250000000     0.142380000000    -0.0845783  
C133     C      0.801220000000     0.744020000000     0.197600000000    -0.0378533  
C134     C      0.772300000000     0.714580000000     0.234810000000    -0.022193   
C135     C      0.804960000000     0.801250000000     0.200510000000     0.000518371
C136     C      0.886930000000     0.813030000000     0.142690000000    -0.088862   
C137     C      0.746430000000     0.741660000000     0.275840000000    -0.0243151  
C138     C      0.665430000000     0.729050000000     0.334700000000    -0.118746   
C139     C      0.749950000000     0.798920000000     0.278640000000    -0.0220737  
C140     C      0.636880000000     0.698460000000     0.371280000000     0.0968152  
C141     C      0.707430000000     0.631140000000     0.370970000000     0.415729   
C142     C      0.778890000000     0.828380000000     0.241420000000    -0.0376486  
C143     C      0.836350000000     0.832500000000     0.161300000000     0.0492814  
C144     C      0.715910000000     0.710230000000     0.315500000000     0.109101   
Co1      Co     0.945200000000     0.020940000000     0.988810000000     0.843666   
Co2      Co     0.108730000000     0.020920000000     0.989370000000     0.842227   
Co3      Co     0.026950000000     0.940290000000     0.989000000000     0.839818   
Co4      Co     0.026980000000     0.101860000000     0.989130000000     0.841012   
Co5      Co     0.608790000000     0.521200000000     0.489390000000     0.849941   
Co6      Co     0.445280000000     0.521280000000     0.488620000000     0.849886   
Co7      Co     0.527060000000     0.601820000000     0.489100000000     0.851257   
Co8      Co     0.526980000000     0.440300000000     0.489070000000     0.842932   
F1       F      0.324430000000     0.458970000000     0.386670000000    -0.445729   
F2       F      0.222990000000     0.076500000000     0.877280000000    -0.451554   
F3       F      0.465320000000     0.722310000000     0.387790000000    -0.445505   
F4       F      0.824070000000     0.083140000000     0.091010000000    -0.449764   
F5       F      0.581010000000     0.714100000000     0.601990000000    -0.447317   
F6       F      0.722020000000     0.466100000000     0.602200000000    -0.447251   
F7       F      0.331040000000     0.576400000000     0.600850000000    -0.447167   
F8       F      0.730140000000     0.583510000000     0.387560000000    -0.445487   
H1       H      0.098690000000     0.215680000000     0.093210000000     0.0329843  
H2       H      0.456410000000     0.327380000000     0.384510000000     0.0283898  
H3       H      0.234750000000     0.320140000000     0.165540000000     0.0433148  
H4       H      0.322520000000     0.221330000000     0.310260000000     0.0389316  
H5       H      0.406700000000     0.275130000000     0.320890000000     0.0648799  
H6       H      0.271780000000     0.169930000000     0.245480000000     0.0428168  
H7       H      0.278310000000     0.397080000000     0.320260000000     0.118362   
H8       H      0.150080000000     0.267480000000     0.156250000000     0.0562107  
H9       H      0.276730000000     0.143470000000     0.155530000000     0.0569234  
H10      H      0.285450000000     0.371510000000     0.230300000000     0.0421314  
H11      H      0.223930000000     0.092070000000     0.093150000000     0.0363348  
H12      H      0.461730000000     0.333430000000     0.602760000000     0.033887   
H13      H      0.092080000000     0.209080000000     0.876570000000     0.02821    
H14      H      0.377850000000     0.280140000000     0.751950000000     0.0433346  
H15      H      0.175150000000     0.265370000000     0.727520000000     0.0387576  
H16      H      0.144080000000     0.263620000000     0.816320000000     0.0644096  
H17      H      0.229380000000     0.320700000000     0.668270000000     0.0459672  
H18      H      0.270880000000     0.140120000000     0.813340000000     0.116744   
H19      H      0.408940000000     0.280250000000     0.663710000000     0.0558432  
H20      H      0.282750000000     0.404730000000     0.663650000000     0.0627513  
H21      H      0.323640000000     0.224780000000     0.811110000000     0.0422636  
H22      H      0.336030000000     0.456530000000     0.601840000000     0.0689497  
H23      H      0.223010000000     0.949180000000     0.094130000000     0.0351552  
H24      H      0.332070000000     0.592030000000     0.383380000000     0.0570729  
H25      H      0.327610000000     0.813580000000     0.166340000000     0.0436826  
H26      H      0.225950000000     0.725640000000     0.309410000000     0.0415915  
H27      H      0.279970000000     0.641960000000     0.319690000000     0.0713729  
H28      H      0.174830000000     0.776840000000     0.244740000000     0.0432767  
H29      H      0.403550000000     0.768660000000     0.321250000000     0.118339   
H30      H      0.274710000000     0.897680000000     0.157250000000     0.0568033  
H31      H      0.149040000000     0.772720000000     0.154580000000     0.0560493  
H32      H      0.378690000000     0.762440000000     0.231000000000     0.0426987  
H33      H      0.097800000000     0.825560000000     0.092210000000     0.0329896  
H34      H      0.598770000000     0.326660000000     0.385060000000     0.0335541  
H35      H      0.956230000000     0.214520000000     0.093620000000     0.0281186  
H36      H      0.734260000000     0.221910000000     0.312380000000     0.0437822  
H37      H      0.822790000000     0.320770000000     0.168110000000     0.0386287  
H38      H      0.906530000000     0.266700000000     0.157270000000     0.06475    
H39      H      0.772360000000     0.372220000000     0.233060000000     0.0450153  
H40      H      0.777920000000     0.144990000000     0.157500000000     0.117183   
H41      H      0.650040000000     0.274910000000     0.321950000000     0.0561347  
H42      H      0.777040000000     0.398560000000     0.323030000000     0.0624033  
H43      H      0.784640000000     0.170490000000     0.247460000000     0.0418009  
H44      H      0.724310000000     0.449960000000     0.385530000000     0.0619012  
H45      H      0.836870000000     0.955410000000     0.875220000000     0.0353014  
H46      H      0.717110000000     0.586690000000     0.602020000000     0.0635187  
H47      H      0.878770000000     0.778380000000     0.725990000000     0.0428864  
H48      H      0.676700000000     0.761630000000     0.753450000000     0.0420025  
H49      H      0.770870000000     0.638150000000     0.663440000000     0.0715781  
H50      H      0.731400000000     0.817260000000     0.811980000000     0.0435867  
H51      H      0.644780000000     0.762410000000     0.665530000000     0.117692   
H52      H      0.783730000000     0.902560000000     0.814060000000     0.0564628  
H53      H      0.910910000000     0.779090000000     0.814480000000     0.0555252  
H54      H      0.824020000000     0.722790000000     0.667350000000     0.0419444  
H55      H      0.963480000000     0.833190000000     0.874910000000     0.0330202  
H56      H      0.961790000000     0.209480000000     0.875850000000     0.0330527  
H57      H      0.591370000000     0.333230000000     0.602230000000     0.0285263  
H58      H      0.782300000000     0.170520000000     0.726530000000     0.0424604  
H59      H      0.768660000000     0.370670000000     0.753820000000     0.0414733  
H60      H      0.642580000000     0.279380000000     0.663660000000     0.0642745  
H61      H      0.823740000000     0.315670000000     0.812560000000     0.0432202  
H62      H      0.769950000000     0.402360000000     0.665870000000     0.117778   
H63      H      0.909040000000     0.262770000000     0.814840000000     0.0557275  
H64      H      0.782710000000     0.138450000000     0.814920000000     0.0566172  
H65      H      0.727230000000     0.225560000000     0.667700000000     0.0388091  
H66      H      0.836820000000     0.085630000000     0.875260000000     0.0364544  
H67      H      0.091780000000     0.833390000000     0.875000000000     0.0331025  
H68      H      0.461320000000     0.709580000000     0.600970000000     0.0650828  
H69      H      0.175620000000     0.779990000000     0.725740000000     0.0434523  
H70      H      0.378340000000     0.765530000000     0.750190000000     0.0411168  
H71      H      0.409220000000     0.764050000000     0.661190000000     0.0721484  
H72      H      0.324020000000     0.820760000000     0.809440000000     0.0445874  
H73      H      0.282950000000     0.640030000000     0.664640000000     0.117514   
H74      H      0.144500000000     0.780190000000     0.813980000000     0.0553426  
H75      H      0.270640000000     0.904710000000     0.813860000000     0.061758   
H76      H      0.229920000000     0.724690000000     0.666600000000     0.0441447  
H77      H      0.217470000000     0.956500000000     0.875720000000     0.0649207  
H78      H      0.955560000000     0.826810000000     0.093520000000     0.0330083  
H79      H      0.597690000000     0.714590000000     0.384530000000     0.0580907  
H80      H      0.781680000000     0.872350000000     0.245220000000     0.0454206  
H81      H      0.769580000000     0.670590000000     0.231040000000     0.0422049  
H82      H      0.647390000000     0.766770000000     0.320880000000     0.0715449  
H83      H      0.820070000000     0.721960000000     0.166150000000     0.0431417  
H84      H      0.776280000000     0.645340000000     0.321060000000     0.118047   
H85      H      0.904310000000     0.775080000000     0.156700000000     0.0558085  
H86      H      0.777020000000     0.898450000000     0.155170000000     0.0613168  
H87      H      0.731140000000     0.820960000000     0.310130000000     0.0416422  
H88      H      0.829720000000     0.949800000000     0.092640000000     0.0582721  
N1       N      0.397000000000     0.392590000000     0.388760000000    -0.239584   
N2       N      0.157290000000     0.149900000000     0.088560000000    -0.189574   
N3       N      0.151440000000     0.143820000000     0.880810000000    -0.238898   
N4       N      0.402680000000     0.398760000000     0.597340000000    -0.184794   
N5       N      0.398060000000     0.650620000000     0.388680000000    -0.236224   
N6       N      0.156440000000     0.891400000000     0.088560000000    -0.189967   
N7       N      0.896720000000     0.149400000000     0.089140000000    -0.239767   
N8       N      0.657530000000     0.392290000000     0.389930000000    -0.18649    
N9       N      0.650170000000     0.644330000000     0.598170000000    -0.234784   
N10      N      0.903870000000     0.898050000000     0.880080000000    -0.188927   
N11      N      0.650590000000     0.398630000000     0.598340000000    -0.238671   
N12      N      0.903060000000     0.143820000000     0.880570000000    -0.1886     
N13      N      0.402300000000     0.644020000000     0.597050000000    -0.234417   
N14      N      0.150850000000     0.898690000000     0.880350000000    -0.18572    
N15      N      0.657330000000     0.649620000000     0.389200000000    -0.23594    
N16      N      0.896640000000     0.892280000000     0.088440000000    -0.187299   
O1       O      0.908230000000     0.968020000000     0.037770000000    -0.346241   
O2       O      0.145490000000     0.073910000000     0.038320000000    -0.357913   
O3       O      0.080070000000     0.903500000000     0.037920000000    -0.363046   
O4       O      0.973360000000     0.137910000000     0.038380000000    -0.367817   
O5       O      0.145150000000     0.967630000000     0.038440000000    -0.359424   
O6       O      0.908500000000     0.073730000000     0.038060000000    -0.324293   
O7       O      0.080610000000     0.138260000000     0.038080000000    -0.36227    
O8       O      0.973440000000     0.904010000000     0.038130000000    -0.361593   
O9       O      0.912750000000     0.069790000000     0.933740000000    -0.363019   
O10      O      0.141430000000     0.972230000000     0.934230000000    -0.349629   
O11      O      0.978260000000     0.908070000000     0.933620000000    -0.367564   
O12      O      0.076540000000     0.134000000000     0.934110000000    -0.372596   
O13      O      0.141490000000     0.069890000000     0.934470000000    -0.329925   
O14      O      0.912890000000     0.971930000000     0.933640000000    -0.364155   
O15      O      0.977620000000     0.134170000000     0.934100000000    -0.367123   
O16      O      0.076170000000     0.908260000000     0.933740000000    -0.365966   
O17      O      0.026880000000     0.021040000000     0.010280000000    -0.590419   
O18      O      0.641150000000     0.570420000000     0.544450000000    -0.350036   
O19      O      0.412380000000     0.472440000000     0.543620000000    -0.344262   
O20      O      0.477350000000     0.634120000000     0.543940000000    -0.349612   
O21      O      0.576220000000     0.408170000000     0.544370000000    -0.372216   
O22      O      0.412360000000     0.570090000000     0.543460000000    -0.326634   
O23      O      0.640940000000     0.472500000000     0.544660000000    -0.327918   
O24      O      0.477480000000     0.408290000000     0.544090000000    -0.366159   
O25      O      0.575720000000     0.634010000000     0.544450000000    -0.327527   
O26      O      0.645750000000     0.468170000000     0.440440000000    -0.341489   
O27      O      0.409150000000     0.574500000000     0.439200000000    -0.347064   
O28      O      0.580630000000     0.638000000000     0.439860000000    -0.347004   
O29      O      0.473500000000     0.404140000000     0.439710000000    -0.367935   
O30      O      0.408740000000     0.468410000000     0.439540000000    -0.322215   
O31      O      0.645600000000     0.573960000000     0.440260000000    -0.320939   
O32      O      0.580720000000     0.403960000000     0.440220000000    -0.361693   
O33      O      0.474170000000     0.638480000000     0.439950000000    -0.321353   
O34      O      0.527150000000     0.521080000000     0.467820000000    -0.59416    


