data_structure

_audit_creation_method RASPA-1.0
_audit_creation_date 2023-5-19
_audit_author_name 'Poobodin Mano'

_cell_length_a    24.7345
_cell_length_b    25.1239
_cell_length_c    25.283
_cell_angle_alpha 90
_cell_angle_beta  90
_cell_angle_gamma 90
_cell_volume      15711.5

_symmetry_cell_setting          triclinic
_symmetry_space_group_name_Hall 'P 1'
_symmetry_space_group_name_H-M  'P 1'
_symmetry_Int_Tables_number     1

_symmetry_equiv_pos_as_xyz 'x,y,z'

loop_
_atom_site_label
_atom_site_type_symbol
_atom_site_fract_x
_atom_site_fract_y
_atom_site_fract_z
_atom_site_charge
C1       C      0.942060000000     0.914290000000     0.097390000000     0.393986   
C2       C      0.940750000000     0.102110000000     0.912970000000     0.396319   
C3       C      0.939670000000     0.099500000000     0.095880000000     0.394422   
C4       C      0.940530000000     0.916250000000     0.911620000000     0.396433   
C5       C      0.080520000000     0.911570000000     0.904180000000     0.40063    
C6       C      0.080950000000     0.105310000000     0.101670000000     0.401866   
C7       C      0.080980000000     0.909580000000     0.100280000000     0.402526   
C8       C      0.082400000000     0.107470000000     0.908600000000     0.399486   
C9       C      0.583330000000     0.600340000000     0.406870000000     0.393354   
C10      C      0.597440000000     0.418120000000     0.593830000000     0.396904   
C11      C      0.591100000000     0.602540000000     0.594950000000     0.396634   
C12      C      0.586190000000     0.416340000000     0.406300000000     0.39503    
C13      C      0.447310000000     0.406630000000     0.411510000000     0.402199   
C14      C      0.450290000000     0.603580000000     0.602570000000     0.399873   
C15      C      0.444520000000     0.606490000000     0.410980000000     0.402395   
C16      C      0.455470000000     0.407600000000     0.602530000000     0.399485   
C17      C      0.358490000000     0.295180000000     0.367760000000    -0.102097   
C18      C      0.132520000000     0.184310000000     0.114890000000     0.0729907  
C19      C      0.133700000000     0.116070000000     0.179690000000     0.073233   
C20      C      0.168080000000     0.214910000000     0.145100000000    -0.0915978  
C21      C      0.267960000000     0.255210000000     0.202230000000    -0.0354271  
C22      C      0.304420000000     0.284310000000     0.232930000000    -0.0342037  
C23      C      0.225220000000     0.227280000000     0.226170000000    -0.00590634 
C24      C      0.169280000000     0.145600000000     0.210830000000    -0.0919405  
C25      C      0.298980000000     0.286020000000     0.288220000000    -0.00831537 
C26      C      0.354950000000     0.366950000000     0.305430000000    -0.0945327  
C27      C      0.256120000000     0.258340000000     0.312150000000    -0.0342591  
C28      C      0.391310000000     0.395260000000     0.336620000000     0.0720008  
C29      C      0.395330000000     0.324140000000     0.398750000000     0.0999955  
C30      C      0.219610000000     0.229330000000     0.281460000000    -0.0354467  
C31      C      0.186980000000     0.195630000000     0.193670000000     0.0497902  
C32      C      0.337990000000     0.316480000000     0.320900000000     0.0547182  
C33      C      0.174050000000     0.216080000000     0.863220000000    -0.101214   
C34      C      0.405790000000     0.327140000000     0.615040000000     0.0722651  
C35      C      0.402600000000     0.394660000000     0.680390000000     0.0722336  
C36      C      0.370310000000     0.295580000000     0.644530000000    -0.090717   
C37      C      0.270030000000     0.252570000000     0.699760000000    -0.0354114  
C38      C      0.232760000000     0.223380000000     0.729670000000    -0.0342095  
C39      C      0.311650000000     0.281420000000     0.724650000000    -0.00555789 
C40      C      0.367090000000     0.364140000000     0.710860000000    -0.0910352  
C41      C      0.236130000000     0.222450000000     0.785170000000    -0.00783134 
C42      C      0.176730000000     0.143150000000     0.802270000000    -0.0930339  
C43      C      0.278230000000     0.250590000000     0.809970000000    -0.0343626  
C44      C      0.138760000000     0.116400000000     0.833320000000     0.070691   
C45      C      0.135570000000     0.188840000000     0.893890000000     0.0995189  
C46      C      0.315510000000     0.279670000000     0.780110000000    -0.0354659  
C47      C      0.350270000000     0.313980000000     0.693030000000     0.0489117  
C48      C      0.195250000000     0.193330000000     0.817310000000     0.0536322  
C49      C      0.353940000000     0.716230000000     0.366690000000    -0.102233   
C50      C      0.131870000000     0.830070000000     0.112750000000     0.0731574  
C51      C      0.133020000000     0.897360000000     0.178540000000     0.0733934  
C52      C      0.166730000000     0.798660000000     0.142890000000    -0.092188   
C53      C      0.265510000000     0.756670000000     0.200720000000    -0.0354159  
C54      C      0.301440000000     0.727060000000     0.231540000000    -0.0342306  
C55      C      0.222540000000     0.784440000000     0.224460000000    -0.00606263 
C56      C      0.167880000000     0.866990000000     0.209650000000    -0.0921902  
C57      C      0.295190000000     0.724710000000     0.286720000000    -0.00837967 
C58      C      0.352140000000     0.644450000000     0.304280000000    -0.0946515  
C59      C      0.251890000000     0.751960000000     0.310380000000    -0.0342776  
C60      C      0.388760000000     0.616740000000     0.335730000000     0.0718395  
C61      C      0.391010000000     0.687910000000     0.397920000000     0.100014   
C62      C      0.215930000000     0.781470000000     0.279590000000    -0.0354457  
C63      C      0.185170000000     0.817010000000     0.191960000000     0.0500236  
C64      C      0.334200000000     0.694620000000     0.319680000000     0.0547904  
C65      C      0.676370000000     0.372780000000     0.296360000000    -0.10151    
C66      C      0.884020000000     0.109390000000     0.172320000000     0.0716728  
C67      C      0.884020000000     0.176230000000     0.106150000000     0.0719283  
C68      C      0.848340000000     0.139320000000     0.203190000000    -0.0910087  
C69      C      0.751150000000     0.200680000000     0.246300000000    -0.0356453  
C70      C      0.717540000000     0.232730000000     0.277390000000    -0.0340907  
C71      C      0.795110000000     0.222940000000     0.218880000000    -0.00569267 
C72      C      0.848610000000     0.207270000000     0.136110000000    -0.0915131  
C73      C      0.727300000000     0.287710000000     0.281920000000    -0.00796959 
C74      C      0.670930000000     0.304900000000     0.362660000000    -0.0932734  
C75      C      0.771690000000     0.309750000000     0.254930000000    -0.0342406  
C76      C      0.636780000000     0.337650000000     0.392100000000     0.0711103  
C77      C      0.642240000000     0.405470000000     0.326690000000     0.0998891  
C78      C      0.805090000000     0.277790000000     0.223710000000    -0.0355826  
C79      C      0.830800000000     0.189230000000     0.185520000000     0.0491246  
C80      C      0.691050000000     0.322170000000     0.314110000000     0.053906   
C81      C      0.681850000000     0.712190000000     0.639270000000    -0.101816   
C82      C      0.885800000000     0.838940000000     0.901330000000     0.0721008  
C83      C      0.886230000000     0.905140000000     0.834490000000     0.0721273  
C84      C      0.851380000000     0.807130000000     0.871100000000    -0.0916826  
C85      C      0.757230000000     0.760440000000     0.809170000000    -0.0356122  
C86      C      0.724940000000     0.728090000000     0.777140000000    -0.0342241  
C87      C      0.800160000000     0.789790000000     0.787270000000    -0.0058765  
C88      C      0.851850000000     0.874270000000     0.803200000000    -0.0915322  
C89      C      0.734850000000     0.724430000000     0.722520000000    -0.00823195 
C90      C      0.680940000000     0.642060000000     0.703450000000    -0.0938719  
C91      C      0.778220000000     0.753230000000     0.700790000000    -0.0343791  
C92      C      0.646070000000     0.613230000000     0.670900000000     0.0704996  
C93      C      0.646640000000     0.682820000000     0.606980000000     0.0993545  
C94      C      0.810460000000     0.785540000000     0.732770000000    -0.0354656  
C95      C      0.834560000000     0.824310000000     0.821080000000     0.0493322  
C96      C      0.698980000000     0.692230000000     0.687930000000     0.0540624  
C97      C      0.695950000000     0.314860000000     0.635680000000    -0.102449   
C98      C      0.883880000000     0.178240000000     0.904760000000     0.0722247  
C99      C      0.888450000000     0.115350000000     0.834990000000     0.0723736  
C100     C      0.849010000000     0.210180000000     0.875090000000    -0.0914327  
C101     C      0.805510000000     0.285110000000     0.791340000000    -0.0353227  
C102     C      0.773930000000     0.317510000000     0.758700000000    -0.0343308  
C103     C      0.799210000000     0.229440000000     0.790590000000    -0.00579306 
C104     C      0.853940000000     0.146460000000     0.804180000000    -0.0914394  
C105     C      0.735690000000     0.294920000000     0.724340000000    -0.00825276 
C106     C      0.678680000000     0.375350000000     0.707080000000    -0.0944838  
C107     C      0.728950000000     0.239400000000     0.723930000000    -0.0343209  
C108     C      0.645740000000     0.405190000000     0.673580000000     0.0716519  
C109     C      0.663330000000     0.345840000000     0.602270000000     0.101384   
C110     C      0.760210000000     0.207050000000     0.756790000000    -0.0353637  
C111     C      0.834140000000     0.194810000000     0.823860000000     0.0493918  
C112     C      0.702990000000     0.328900000000     0.688640000000     0.0546806  
C113     C      0.168500000000     0.864270000000     0.794060000000    -0.101558   
C114     C      0.398510000000     0.614610000000     0.681390000000     0.0724583  
C115     C      0.395040000000     0.680470000000     0.614350000000     0.0724941  
C116     C      0.361720000000     0.643340000000     0.712120000000    -0.0913719  
C117     C      0.306970000000     0.728060000000     0.780030000000    -0.0355502  
C118     C      0.269840000000     0.757920000000     0.809430000000    -0.0341856  
C119     C      0.300730000000     0.722210000000     0.725040000000    -0.00567595 
C120     C      0.358040000000     0.710070000000     0.643960000000    -0.0909999  
C121     C      0.225610000000     0.782550000000     0.784490000000    -0.0080034  
C122     C      0.169570000000     0.801430000000     0.865280000000    -0.0934473  
C123     C      0.218900000000     0.775830000000     0.729650000000    -0.0342745  
C124     C      0.133840000000     0.833960000000     0.893250000000     0.0707145  
C125     C      0.132430000000     0.896520000000     0.822560000000     0.099703   
C126     C      0.256040000000     0.746140000000     0.700290000000    -0.0355561  
C127     C      0.340730000000     0.691540000000     0.693420000000     0.0491776  
C128     C      0.187350000000     0.816380000000     0.815100000000     0.0538329  
C129     C      0.853700000000     0.865720000000     0.206750000000    -0.10137    
C130     C      0.629680000000     0.613480000000     0.325090000000     0.0714697  
C131     C      0.642530000000     0.674480000000     0.395350000000     0.0712262  
C132     C      0.665190000000     0.642390000000     0.293040000000    -0.090484   
C133     C      0.717810000000     0.728090000000     0.224870000000    -0.0355652  
C134     C      0.752810000000     0.759080000000     0.194030000000    -0.0344206  
C135     C      0.728110000000     0.719910000000     0.279050000000    -0.00551196 
C136     C      0.678220000000     0.704350000000     0.364390000000    -0.0903023  
C137     C      0.798790000000     0.782750000000     0.216700000000    -0.00797519 
C138     C      0.850420000000     0.805080000000     0.133760000000    -0.0930259  
C139     C      0.809640000000     0.773620000000     0.270560000000    -0.0344399  
C140     C      0.885580000000     0.838390000000     0.105810000000     0.0695155  
C141     C      0.888910000000     0.898850000000     0.178200000000     0.0988057  
C142     C      0.774810000000     0.742640000000     0.301290000000    -0.0355904  
C143     C      0.690120000000     0.688440000000     0.312520000000     0.0483983  
C144     C      0.834650000000     0.818220000000     0.185100000000     0.0532445  
Co1      Co     0.015250000000     0.929090000000     0.003270000000     0.836534   
Co2      Co     0.015040000000     0.086780000000     0.004640000000     0.837565   
Co3      Co     0.015350000000     0.007640000000     0.081870000000     0.840234   
Co4      Co     0.015170000000     0.009300000000     0.925470000000     0.840717   
Co5      Co     0.510290000000     0.507420000000     0.425710000000     0.839239   
Co6      Co     0.518360000000     0.507590000000     0.583160000000     0.839278   
Co7      Co     0.515620000000     0.585710000000     0.504190000000     0.840066   
Co8      Co     0.519010000000     0.429120000000     0.504170000000     0.841371   
H1       H      0.121340000000     0.077420000000     0.194460000000     0.0313013  
H2       H      0.402410000000     0.434430000000     0.322250000000     0.0327468  
H3       H      0.186600000000     0.208980000000     0.301040000000     0.0386256  
H4       H      0.337460000000     0.304700000000     0.213440000000     0.0384365  
H5       H      0.339590000000     0.385090000000     0.269570000000     0.054177   
H6       H      0.273870000000     0.253780000000     0.159810000000     0.0385206  
H7       H      0.346150000000     0.255460000000     0.379680000000     0.0575237  
H8       H      0.183470000000     0.128840000000     0.247780000000     0.0533771  
H9       H      0.180210000000     0.253710000000     0.130650000000     0.0535252  
H10      H      0.250400000000     0.259630000000     0.354610000000     0.0383015  
H11      H      0.118880000000     0.200810000000     0.077580000000     0.0325683  
H12      H      0.414060000000     0.433400000000     0.695640000000     0.0309467  
H13      H      0.126810000000     0.077210000000     0.819700000000     0.0339486  
H14      H      0.347620000000     0.300550000000     0.800550000000     0.0384854  
H15      H      0.200460000000     0.202650000000     0.709360000000     0.0384419  
H16      H      0.192210000000     0.123950000000     0.767030000000     0.0541761  
H17      H      0.265400000000     0.253560000000     0.657190000000     0.0386072  
H18      H      0.186930000000     0.255820000000     0.874520000000     0.0573246  
H19      H      0.352150000000     0.380360000000     0.747760000000     0.0530097  
H20      H      0.359070000000     0.256750000000     0.629510000000     0.0534843  
H21      H      0.282580000000     0.249930000000     0.852600000000     0.0383852  
H22      H      0.420190000000     0.311210000000     0.577780000000     0.0332092  
H23      H      0.120860000000     0.935910000000     0.193740000000     0.0314103  
H24      H      0.400700000000     0.577760000000     0.321480000000     0.0324463  
H25      H      0.182680000000     0.801650000000     0.298950000000     0.0385677  
H26      H      0.334820000000     0.706980000000     0.212290000000     0.0382539  
H27      H      0.337400000000     0.626130000000     0.268260000000     0.0540566  
H28      H      0.272100000000     0.758740000000     0.158420000000     0.0382475  
H29      H      0.340870000000     0.755750000000     0.378510000000     0.0576587  
H30      H      0.181790000000     0.883030000000     0.247010000000     0.0535091  
H31      H      0.178630000000     0.759960000000     0.128020000000     0.0532509  
H32      H      0.245540000000     0.750130000000     0.352740000000     0.038212   
H33      H      0.118510000000     0.814260000000     0.075050000000     0.0307447  
H34      H      0.897030000000     0.192030000000     0.068330000000     0.0317377  
H35      H      0.621870000000     0.321190000000     0.428920000000     0.0352403  
H36      H      0.839240000000     0.295960000000     0.203890000000     0.0390386  
H37      H      0.683310000000     0.214570000000     0.297080000000     0.0385262  
H38      H      0.681710000000     0.266180000000     0.378270000000     0.0543555  
H39      H      0.742120000000     0.158630000000     0.242960000000     0.0386348  
H40      H      0.691320000000     0.386610000000     0.258390000000     0.0572153  
H41      H      0.835280000000     0.245230000000     0.120550000000     0.053127   
H42      H      0.835800000000     0.124010000000     0.241310000000     0.0535847  
H43      H      0.781060000000     0.351710000000     0.258360000000     0.0381152  
H44      H      0.897400000000     0.071500000000     0.188020000000     0.0331682  
H45      H      0.899080000000     0.943280000000     0.818840000000     0.0315163  
H46      H      0.633580000000     0.574540000000     0.685450000000     0.0328757  
H47      H      0.843900000000     0.806750000000     0.714840000000     0.0387895  
H48      H      0.691400000000     0.706930000000     0.794940000000     0.0382759  
H49      H      0.693900000000     0.624820000000     0.740620000000     0.0535911  
H50      H      0.747910000000     0.763250000000     0.850930000000     0.0380077  
H51      H      0.695190000000     0.751510000000     0.627040000000     0.0574071  
H52      H      0.838970000000     0.889540000000     0.765170000000     0.0531584  
H53      H      0.839270000000     0.768650000000     0.886350000000     0.0530166  
H54      H      0.787460000000     0.750570000000     0.658990000000     0.0379656  
H55      H      0.898460000000     0.823580000000     0.939450000000     0.0314216  
H56      H      0.903360000000     0.078640000000     0.817780000000     0.0317145  
H57      H      0.626530000000     0.439860000000     0.690890000000     0.0325055  
H58      H      0.753540000000     0.164460000000     0.755900000000     0.0382246  
H59      H      0.780310000000     0.360160000000     0.759470000000     0.0381103  
H60      H      0.683580000000     0.387800000000     0.747820000000     0.0540747  
H61      H      0.835720000000     0.303670000000     0.816250000000     0.0387132  
H62      H      0.716830000000     0.280090000000     0.620350000000     0.0581254  
H63      H      0.844060000000     0.133180000000     0.764590000000     0.0531613  
H64      H      0.833850000000     0.246700000000     0.892340000000     0.0529838  
H65      H      0.699120000000     0.220980000000     0.698450000000     0.0392405  
H66      H      0.894710000000     0.191970000000     0.944010000000     0.0316101  
H67      H      0.407240000000     0.696380000000     0.576330000000     0.0330509  
H68      H      0.121790000000     0.819940000000     0.932070000000     0.0323628  
H69      H      0.249460000000     0.741540000000     0.658190000000     0.0386743  
H70      H      0.276550000000     0.762800000000     0.851480000000     0.0380216  
H71      H      0.182740000000     0.764320000000     0.882890000000     0.0536778  
H72      H      0.341250000000     0.710550000000     0.800220000000     0.0385445  
H73      H      0.182580000000     0.876760000000     0.755310000000     0.0573231  
H74      H      0.343460000000     0.747550000000     0.628300000000     0.0536806  
H75      H      0.349090000000     0.627290000000     0.749920000000     0.053115   
H76      H      0.184710000000     0.793350000000     0.709330000000     0.038283   
H77      H      0.413270000000     0.577260000000     0.697300000000     0.0311128  
H78      H      0.634470000000     0.688480000000     0.435080000000     0.0332243  
H79      H      0.896570000000     0.825590000000     0.066290000000     0.0322578  
H80      H      0.784710000000     0.736260000000     0.342530000000     0.0383311  
H81      H      0.743050000000     0.765710000000     0.152790000000     0.0377619  
H82      H      0.836570000000     0.768560000000     0.115460000000     0.0533053  
H83      H      0.681940000000     0.711670000000     0.206510000000     0.0384235  
H84      H      0.840750000000     0.876990000000     0.246250000000     0.0571885  
H85      H      0.695730000000     0.740170000000     0.380930000000     0.0532484  
H86      H      0.673380000000     0.628300000000     0.253350000000     0.0529861  
H87      H      0.845300000000     0.790390000000     0.289020000000     0.0385856  
H88      H      0.610830000000     0.578620000000     0.307990000000     0.033389   
N1       N      0.411780000000     0.374910000000     0.383190000000    -0.191495   
N2       N      0.115510000000     0.135180000000     0.132000000000    -0.190894   
N3       N      0.118330000000     0.138010000000     0.879330000000    -0.190428   
N4       N      0.421630000000     0.376500000000     0.632640000000    -0.189767   
N5       N      0.408520000000     0.637450000000     0.382430000000    -0.191594   
N6       N      0.115140000000     0.879100000000     0.130410000000    -0.191262   
N7       N      0.621740000000     0.387600000000     0.374900000000    -0.190079   
N8       N      0.902330000000     0.127980000000     0.124450000000    -0.189306   
N9       N      0.627920000000     0.632980000000     0.623170000000    -0.190435   
N10      N      0.903880000000     0.887210000000     0.882820000000    -0.190019   
N11      N      0.635920000000     0.389980000000     0.622060000000    -0.191487   
N12      N      0.904080000000     0.131520000000     0.884580000000    -0.189985   
N13      N      0.115100000000     0.881490000000     0.872960000000    -0.19081    
N14      N      0.414900000000     0.632870000000     0.632710000000    -0.189994   
N15      N      0.905640000000     0.884860000000     0.127290000000    -0.189456   
N16      N      0.618560000000     0.629170000000     0.376010000000    -0.188527   
O1       O      0.959140000000     0.896160000000     0.052950000000    -0.362655   
O2       O      0.957530000000     0.119330000000     0.957650000000    -0.367474   
O3       O      0.957700000000     0.055360000000     0.114010000000    -0.365925   
O4       O      0.958230000000     0.960550000000     0.893470000000    -0.366916   
O5       O      0.957400000000     0.118250000000     0.052160000000    -0.366782   
O6       O      0.958140000000     0.897660000000     0.955430000000    -0.37051    
O7       O      0.959150000000     0.058680000000     0.893630000000    -0.368992   
O8       O      0.959710000000     0.958790000000     0.114430000000    -0.365113   
O9       O      0.064950000000     0.893690000000     0.949210000000    -0.360849   
O10      O      0.064800000000     0.123180000000     0.057020000000    -0.362533   
O11      O      0.065430000000     0.954940000000     0.117510000000    -0.363505   
O12      O      0.065970000000     0.062630000000     0.890470000000    -0.360036   
O13      O      0.066230000000     0.123270000000     0.953870000000    -0.361038   
O14      O      0.064810000000     0.892230000000     0.055430000000    -0.365037   
O15      O      0.064330000000     0.957090000000     0.888500000000    -0.362487   
O16      O      0.065260000000     0.059830000000     0.118390000000    -0.365089   
O17      O      0.037500000000     0.008020000000     0.003660000000    -0.593191   
O18      O      0.562770000000     0.557270000000     0.388810000000    -0.363928   
O19      O      0.577880000000     0.461080000000     0.613230000000    -0.369718   
O20      O      0.572570000000     0.619060000000     0.550830000000    -0.368035   
O21      O      0.572990000000     0.398360000000     0.451930000000    -0.366245   
O22      O      0.574350000000     0.558240000000     0.614050000000    -0.366051   
O23      O      0.565040000000     0.459520000000     0.389410000000    -0.363365   
O24      O      0.578980000000     0.399720000000     0.550330000000    -0.367774   
O25      O      0.570630000000     0.617220000000     0.453050000000    -0.365343   
O26      O      0.459860000000     0.452700000000     0.393670000000    -0.36487    
O27      O      0.467710000000     0.558950000000     0.619950000000    -0.363606   
O28      O      0.463970000000     0.623140000000     0.454670000000    -0.361152   
O29      O      0.471820000000     0.390630000000     0.557570000000    -0.360448   
O30      O      0.469940000000     0.453450000000     0.619510000000    -0.363068   
O31      O      0.458460000000     0.560760000000     0.393210000000    -0.364193   
O32      O      0.467640000000     0.390420000000     0.455020000000    -0.359659   
O33      O      0.465270000000     0.621010000000     0.557280000000    -0.359741   
O34      O      0.493870000000     0.506930000000     0.505430000000    -0.593917   
S1       S      0.416240000000     0.295130000000     0.451010000000    -0.00457311 
S2       S      0.112430000000     0.220590000000     0.943630000000    -0.00405    
S3       S      0.410990000000     0.717340000000     0.450300000000    -0.00362789 
S4       S      0.630820000000     0.463220000000     0.303180000000    -0.00653427 
S5       S      0.629980000000     0.710580000000     0.552650000000    -0.00386363 
S6       S      0.663180000000     0.329550000000     0.541340000000    -0.00786874 
S7       S      0.112930000000     0.949310000000     0.793090000000    -0.00470089 
S8       S      0.908520000000     0.951120000000     0.208460000000    -0.00350994 


