data_structure

_audit_creation_method RASPA-1.0
_audit_creation_date 2023-5-19
_audit_author_name 'Poobodin Mano'

_cell_length_a    24.9973
_cell_length_b    24.8373
_cell_length_c    25.1909
_cell_angle_alpha 90
_cell_angle_beta  90
_cell_angle_gamma 90
_cell_volume      15640.2

_symmetry_cell_setting          triclinic
_symmetry_space_group_name_Hall 'P 1'
_symmetry_space_group_name_H-M  'P 1'
_symmetry_Int_Tables_number     1

_symmetry_equiv_pos_as_xyz 'x,y,z'

loop_
_atom_site_label
_atom_site_type_symbol
_atom_site_fract_x
_atom_site_fract_y
_atom_site_fract_z
_atom_site_charge
Br1      Br     0.166820000000     0.032660000000     0.171160000000    -0.213605   
Br2      Br     0.406970000000     0.300400000000     0.548740000000    -0.220178   
Br3      Br     0.067700000000     0.938310000000     0.231420000000    -0.206995   
Br4      Br     0.602280000000     0.292700000000     0.454940000000    -0.220307   
Br5      Br     0.923420000000     0.791590000000     0.952490000000    -0.228704   
Br6      Br     0.592860000000     0.462710000000     0.727780000000    -0.228654   
Br7      Br     0.415910000000     0.733920000000     0.554090000000    -0.228362   
Br8      Br     0.593200000000     0.569020000000     0.284400000000    -0.229224   
C1       C      0.940440000000     0.920490000000     0.103210000000     0.401961   
C2       C      0.942460000000     0.110150000000     0.909870000000     0.401409   
C3       C      0.950300000000     0.115890000000     0.105690000000     0.40266    
C4       C      0.946840000000     0.913750000000     0.908350000000     0.409087   
C5       C      0.086390000000     0.920680000000     0.917090000000     0.397282   
C6       C      0.091350000000     0.104790000000     0.093400000000     0.403728   
C7       C      0.075480000000     0.914870000000     0.104670000000     0.409976   
C8       C      0.084130000000     0.108300000000     0.913800000000     0.397084   
C9       C      0.572710000000     0.613780000000     0.405230000000     0.411021   
C10      C      0.572770000000     0.416020000000     0.607390000000     0.409362   
C11      C      0.576340000000     0.613150000000     0.601050000000     0.400358   
C12      C      0.579370000000     0.414910000000     0.410770000000     0.410597   
C13      C      0.440750000000     0.418070000000     0.411410000000     0.394649   
C14      C      0.438430000000     0.611580000000     0.598440000000     0.405215   
C15      C      0.434420000000     0.603060000000     0.412310000000     0.395077   
C16      C      0.436450000000     0.419540000000     0.597700000000     0.406289   
C17      C      0.196500000000     0.140570000000     0.190230000000    -0.127385   
C18      C      0.382300000000     0.410420000000     0.337010000000     0.0747729  
C19      C      0.394780000000     0.335690000000     0.394190000000     0.0754419  
C20      C      0.348120000000     0.380240000000     0.304760000000    -0.0887968  
C21      C      0.254410000000     0.313680000000     0.262450000000    -0.0353355  
C22      C      0.221730000000     0.282330000000     0.229620000000    -0.0297112  
C23      C      0.302910000000     0.293100000000     0.282030000000    -0.00203899 
C24      C      0.361250000000     0.304170000000     0.362440000000    -0.0849677  
C25      C      0.237000000000     0.229770000000     0.215170000000    -0.0105783  
C26      C      0.172310000000     0.218500000000     0.139360000000    -0.100514   
C27      C      0.285920000000     0.209530000000     0.234380000000    -0.0289812  
C28      C      0.137560000000     0.186560000000     0.109460000000     0.0800821  
C29      C      0.161920000000     0.109220000000     0.159240000000     0.191187   
C30      C      0.318310000000     0.240700000000     0.267600000000    -0.0344835  
C31      C      0.337630000000     0.326300000000     0.316990000000     0.0502584  
C32      C      0.201530000000     0.195920000000     0.181150000000     0.0700359  
C33      C      0.349770000000     0.308280000000     0.644360000000    -0.128642   
C34      C      0.137160000000     0.187220000000     0.902950000000     0.0739261  
C35      C      0.140340000000     0.118230000000     0.837960000000     0.0736223  
C36      C      0.172360000000     0.218740000000     0.873240000000    -0.0908643  
C37      C      0.218380000000     0.288710000000     0.785230000000    -0.0351684  
C38      C      0.251850000000     0.320050000000     0.753270000000    -0.0303681  
C39      C      0.228170000000     0.233350000000     0.791840000000    -0.00382932 
C40      C      0.175820000000     0.148640000000     0.807360000000    -0.0907853  
C41      C      0.295880000000     0.296730000000     0.727280000000    -0.0108687  
C42      C      0.346000000000     0.381710000000     0.705990000000    -0.100179   
C43      C      0.306040000000     0.241510000000     0.734560000000    -0.0299746  
C44      C      0.380300000000     0.410890000000     0.673080000000     0.0808526  
C45      C      0.384310000000     0.338070000000     0.612000000000     0.190489   
C46      C      0.272510000000     0.210180000000     0.766350000000    -0.0344994  
C47      C      0.191850000000     0.199750000000     0.824650000000     0.0507029  
C48      C      0.330840000000     0.329490000000     0.692120000000     0.0706797  
C49      C      0.147690000000     0.858920000000     0.220010000000    -0.127206   
C50      C      0.382750000000     0.612900000000     0.333370000000     0.0750274  
C51      C      0.372370000000     0.675440000000     0.403730000000     0.0728393  
C52      C      0.346270000000     0.641580000000     0.302320000000    -0.0891422  
C53      C      0.297360000000     0.733450000000     0.237090000000    -0.0351481  
C54      C      0.262560000000     0.764950000000     0.206690000000    -0.0288341  
C55      C      0.284440000000     0.719900000000     0.289680000000    -0.00226836 
C56      C      0.335150000000     0.704620000000     0.374040000000    -0.0861485  
C57      C      0.213750000000     0.783100000000     0.228020000000    -0.0104536  
C58      C      0.170390000000     0.809040000000     0.141580000000    -0.100046   
C59      C      0.200560000000     0.768550000000     0.280450000000    -0.0287908  
C60      C      0.135860000000     0.841810000000     0.112390000000     0.0839826  
C61      C      0.112530000000     0.890630000000     0.190140000000     0.199878   
C62      C      0.235670000000     0.737650000000     0.311010000000    -0.0349322  
C63      C      0.322210000000     0.688130000000     0.322500000000     0.0501982  
C64      C      0.177050000000     0.817570000000     0.196050000000     0.0725745  
C65      C      0.669620000000     0.305770000000     0.366310000000    -0.128601   
C66      C      0.900930000000     0.196790000000     0.118970000000     0.0746383  
C67      C      0.899590000000     0.128520000000     0.184760000000     0.0752907  
C68      C      0.865890000000     0.228220000000     0.148930000000    -0.0911595  
C69      C      0.766280000000     0.269320000000     0.203950000000    -0.0344564  
C70      C      0.728950000000     0.298330000000     0.233650000000    -0.0302569  
C71      C      0.807940000000     0.241200000000     0.229230000000    -0.00372614 
C72      C      0.864350000000     0.158830000000     0.215620000000    -0.090041   
C73      C      0.732310000000     0.299620000000     0.289290000000    -0.0106513  
C74      C      0.674620000000     0.380210000000     0.305830000000    -0.0981095  
C75      C      0.774160000000     0.271920000000     0.314590000000    -0.0301604  
C76      C      0.636720000000     0.407310000000     0.336340000000     0.0795532  
C77      C      0.631240000000     0.333440000000     0.396170000000     0.190136   
C78      C      0.811640000000     0.243120000000     0.284890000000    -0.0345158  
C79      C      0.846780000000     0.209190000000     0.197690000000     0.0511716  
C80      C      0.691820000000     0.329070000000     0.320960000000     0.0704199  
C81      C      0.859120000000     0.803310000000     0.861460000000    -0.129077   
C82      C      0.629060000000     0.692430000000     0.612240000000     0.0756263  
C83      C      0.629840000000     0.624770000000     0.678560000000     0.0737525  
C84      C      0.665150000000     0.723460000000     0.641570000000    -0.0886     
C85      C      0.764600000000     0.765560000000     0.697320000000    -0.0351415  
C86      C      0.801580000000     0.794900000000     0.727350000000    -0.030016   
C87      C      0.722990000000     0.736960000000     0.722270000000    -0.00236134 
C88      C      0.666040000000     0.654680000000     0.708800000000    -0.0861575  
C89      C      0.797980000000     0.796140000000     0.783020000000    -0.0113881  
C90      C      0.855680000000     0.877060000000     0.800150000000    -0.101129   
C91      C      0.756120000000     0.768010000000     0.807910000000    -0.0296634  
C92      C      0.892530000000     0.904730000000     0.831640000000     0.0793472  
C93      C      0.896390000000     0.831540000000     0.892310000000     0.189677   
C94      C      0.719050000000     0.738890000000     0.777930000000    -0.0346965  
C95      C      0.684230000000     0.704730000000     0.690510000000     0.0500592  
C96      C      0.838050000000     0.825990000000     0.815240000000     0.0701147  
C97      C      0.656520000000     0.369540000000     0.719790000000    -0.127722   
C98      C      0.889790000000     0.120830000000     0.831640000000     0.0738485  
C99      C      0.886020000000     0.186830000000     0.899530000000     0.0737733  
C100     C      0.852770000000     0.149690000000     0.801360000000    -0.0908512  
C101     C      0.798580000000     0.236050000000     0.734280000000    -0.0346863  
C102     C      0.761590000000     0.265950000000     0.704890000000    -0.0303481  
C103     C      0.791920000000     0.229140000000     0.789270000000    -0.00392146 
C104     C      0.848740000000     0.216520000000     0.870410000000    -0.0909062  
C105     C      0.716970000000     0.289500000000     0.729760000000    -0.0100216  
C106     C      0.662610000000     0.306820000000     0.647710000000    -0.096586   
C107     C      0.710090000000     0.282070000000     0.784700000000    -0.0302538  
C108     C      0.626930000000     0.338570000000     0.618870000000     0.0803913  
C109     C      0.620500000000     0.400740000000     0.690280000000     0.190785   
C110     C      0.747180000000     0.252360000000     0.814100000000    -0.0344715  
C111     C      0.831630000000     0.198070000000     0.820710000000     0.0506489  
C112     C      0.678190000000     0.322290000000     0.698690000000     0.0697778  
C113     C      0.355170000000     0.724470000000     0.647650000000    -0.128799   
C114     C      0.140140000000     0.842000000000     0.906930000000     0.0749661  
C115     C      0.144720000000     0.911750000000     0.842820000000     0.0741815  
C116     C      0.175890000000     0.810760000000     0.877420000000    -0.0897162  
C117     C      0.222260000000     0.742110000000     0.788120000000    -0.0352907  
C118     C      0.255390000000     0.711290000000     0.755310000000    -0.0302046  
C119     C      0.232750000000     0.797090000000     0.796360000000    -0.00350819 
C120     C      0.180770000000     0.881750000000     0.812570000000    -0.0904117  
C121     C      0.299890000000     0.734720000000     0.730130000000    -0.0111627  
C122     C      0.348450000000     0.649390000000     0.707070000000    -0.100569   
C123     C      0.310770000000     0.789550000000     0.739080000000    -0.0300318  
C124     C      0.382380000000     0.620230000000     0.673820000000     0.0794837  
C125     C      0.389450000000     0.694650000000     0.614920000000     0.189415   
C126     C      0.277530000000     0.820370000000     0.771680000000    -0.034886   
C127     C      0.196310000000     0.830360000000     0.829400000000     0.0507433  
C128     C      0.334750000000     0.702330000000     0.694450000000     0.0700013  
C129     C      0.655760000000     0.662760000000     0.293680000000    -0.129464   
C130     C      0.887740000000     0.911180000000     0.181500000000     0.0776321  
C131     C      0.882960000000     0.844780000000     0.114020000000     0.0747226  
C132     C      0.850500000000     0.882990000000     0.212060000000    -0.0886582  
C133     C      0.743860000000     0.781620000000     0.200140000000    -0.0349161  
C134     C      0.706980000000     0.751850000000     0.229630000000    -0.0293156  
C135     C      0.788970000000     0.804320000000     0.224750000000    -0.00242584 
C136     C      0.845470000000     0.815760000000     0.143420000000    -0.0869953  
C137     C      0.714470000000     0.743870000000     0.284390000000    -0.0113741  
C138     C      0.660520000000     0.725030000000     0.366300000000    -0.100874   
C139     C      0.759230000000     0.767220000000     0.309150000000    -0.0294414  
C140     C      0.625350000000     0.692390000000     0.394790000000     0.0809339  
C141     C      0.620310000000     0.630690000000     0.322800000000     0.190793   
C142     C      0.796050000000     0.797190000000     0.279650000000    -0.0352379  
C143     C      0.828780000000     0.834780000000     0.193040000000     0.0509457  
C144     C      0.676400000000     0.710230000000     0.315230000000     0.0710405  
Co1      Co     0.009800000000     0.934350000000     0.007310000000     0.843818   
Co2      Co     0.010840000000     0.094170000000     0.006140000000     0.842651   
Co3      Co     0.011860000000     0.014820000000     0.084950000000     0.844777   
Co4      Co     0.011330000000     0.013620000000     0.928080000000     0.840637   
Co5      Co     0.511680000000     0.512980000000     0.427340000000     0.846215   
Co6      Co     0.508660000000     0.514940000000     0.584160000000     0.844373   
Co7      Co     0.509680000000     0.593860000000     0.504500000000     0.840724   
Co8      Co     0.511630000000     0.434060000000     0.506410000000     0.844966   
H1       H      0.412810000000     0.316700000000     0.428490000000     0.0556195  
H2       H      0.114850000000     0.206630000000     0.078570000000     0.0319662  
H3       H      0.355890000000     0.224070000000     0.281360000000     0.0451224  
H4       H      0.184000000000     0.299010000000     0.216400000000     0.0399207  
H5       H      0.175980000000     0.260840000000     0.129740000000     0.0575069  
H6       H      0.241230000000     0.353740000000     0.273300000000     0.0415025  
H7       H      0.219230000000     0.121430000000     0.221590000000     0.0840079  
H8       H      0.353780000000     0.262720000000     0.373560000000     0.0623589  
H9       H      0.330940000000     0.398800000000     0.269780000000     0.055869   
H10      H      0.299610000000     0.169730000000     0.223320000000     0.0434818  
H11      H      0.389680000000     0.451880000000     0.325660000000     0.0351984  
H12      H      0.128500000000     0.079170000000     0.822760000000     0.0325151  
H13      H      0.391060000000     0.451020000000     0.686290000000     0.0352134  
H14      H      0.281620000000     0.167850000000     0.771370000000     0.0418076  
H15      H      0.242540000000     0.362300000000     0.748000000000     0.0392392  
H16      H      0.332430000000     0.399720000000     0.742770000000     0.0589241  
H17      H      0.184140000000     0.307600000000     0.803850000000     0.0409968  
H18      H      0.337640000000     0.268300000000     0.632010000000     0.0830319  
H19      H      0.189650000000     0.132590000000     0.769810000000     0.0558499  
H20      H      0.184420000000     0.257690000000     0.888450000000     0.055399   
H21      H      0.340240000000     0.222490000000     0.715990000000     0.0441156  
H22      H      0.122940000000     0.203710000000     0.940230000000     0.0336658  
H23      H      0.381750000000     0.690030000000     0.443160000000     0.0507316  
H24      H      0.132930000000     0.833960000000     0.070120000000     0.0327033  
H25      H      0.224420000000     0.727160000000     0.351240000000     0.0431425  
H26      H      0.274510000000     0.775960000000     0.166830000000     0.0408088  
H27      H      0.191350000000     0.776850000000     0.121390000000     0.0586335  
H28      H      0.335010000000     0.720750000000     0.219850000000     0.0436911  
H29      H      0.151510000000     0.866460000000     0.262180000000     0.0854546  
H30      H      0.317520000000     0.740590000000     0.390950000000     0.0610928  
H31      H      0.336800000000     0.627250000000     0.262800000000     0.056493   
H32      H      0.162840000000     0.780620000000     0.297900000000     0.043104   
H33      H      0.400580000000     0.577190000000     0.316060000000     0.0376615  
H34      H      0.911620000000     0.089500000000     0.199930000000     0.0371298  
H35      H      0.625560000000     0.447260000000     0.323030000000     0.0484542  
H36      H      0.843750000000     0.222680000000     0.305550000000     0.0422304  
H37      H      0.696720000000     0.318740000000     0.213130000000     0.0420636  
H38      H      0.691020000000     0.399760000000     0.271000000000     0.0627414  
H39      H      0.761750000000     0.267970000000     0.161210000000     0.0411466  
H40      H      0.681310000000     0.265440000000     0.377970000000     0.0827123  
H41      H      0.850110000000     0.142220000000     0.252780000000     0.057032   
H42      H      0.854070000000     0.267330000000     0.133960000000     0.0554176  
H43      H      0.778180000000     0.272870000000     0.357400000000     0.0426267  
H44      H      0.914430000000     0.213020000000     0.081330000000     0.0321222  
H45      H      0.617110000000     0.586240000000     0.694290000000     0.0496973  
H46      H      0.903920000000     0.944640000000     0.818320000000     0.0320782  
H47      H      0.686960000000     0.718270000000     0.798440000000     0.0433397  
H48      H      0.833720000000     0.815650000000     0.707020000000     0.0401433  
H49      H      0.840270000000     0.896220000000     0.764680000000     0.0581688  
H50      H      0.769330000000     0.764380000000     0.654610000000     0.0411406  
H51      H      0.847280000000     0.763060000000     0.873220000000     0.0824773  
H52      H      0.680250000000     0.638120000000     0.745990000000     0.0597497  
H53      H      0.677480000000     0.762220000000     0.626150000000     0.0563806  
H54      H      0.751710000000     0.768920000000     0.850680000000     0.0427322  
H55      H      0.615380000000     0.708620000000     0.574640000000     0.036622   
H56      H      0.898150000000     0.202730000000     0.937770000000     0.0322855  
H57      H      0.616760000000     0.324530000000     0.579400000000     0.0513774  
H58      H      0.740450000000     0.247030000000     0.856250000000     0.0415836  
H59      H      0.768580000000     0.271510000000     0.662810000000     0.0413372  
H60      H      0.677610000000     0.270020000000     0.630060000000     0.0633092  
H61      H      0.832990000000     0.219220000000     0.714100000000     0.0414562  
H62      H      0.667990000000     0.382690000000     0.759200000000     0.0819145  
H63      H      0.833910000000     0.254080000000     0.886560000000     0.0556817  
H64      H      0.840210000000     0.133690000000     0.763350000000     0.05559    
H65      H      0.675690000000     0.298770000000     0.804990000000     0.0431778  
H66      H      0.904800000000     0.083420000000     0.815220000000     0.0323257  
H67      H      0.133260000000     0.951000000000     0.827810000000     0.0329705  
H68      H      0.391660000000     0.579390000000     0.685960000000     0.0343819  
H69      H      0.287130000000     0.862430000000     0.777890000000     0.0416546  
H70      H      0.245460000000     0.669370000000     0.748790000000     0.039346   
H71      H      0.333940000000     0.630660000000     0.743130000000     0.0584172  
H72      H      0.187650000000     0.723170000000     0.806030000000     0.0423375  
H73      H      0.344540000000     0.765200000000     0.636390000000     0.0822075  
H74      H      0.195300000000     0.898290000000     0.775480000000     0.0559035  
H75      H      0.187500000000     0.771520000000     0.892220000000     0.0563359  
H76      H      0.345320000000     0.808640000000     0.721240000000     0.043265   
H77      H      0.125020000000     0.825070000000     0.943660000000     0.0365994  
H78      H      0.894810000000     0.828470000000     0.075880000000     0.0485979  
H79      H      0.614900000000     0.705740000000     0.434450000000     0.034757   
H80      H      0.830740000000     0.813710000000     0.299610000000     0.0433484  
H81      H      0.672400000000     0.735300000000     0.209520000000     0.0431569  
H82      H      0.674910000000     0.761920000000     0.384250000000     0.0594124  
H83      H      0.736830000000     0.787230000000     0.158070000000     0.0430756  
H84      H      0.667500000000     0.650210000000     0.254160000000     0.0824372  
H85      H      0.830160000000     0.778250000000     0.127570000000     0.0599146  
H86      H      0.838280000000     0.899330000000     0.250050000000     0.0575824  
H87      H      0.766540000000     0.761260000000     0.351120000000     0.0400515  
H88      H      0.903330000000     0.948470000000     0.197670000000     0.0397428  
N1       N      0.130610000000     0.132680000000     0.120270000000    -0.20214    
N2       N      0.405730000000     0.388290000000     0.381310000000    -0.185928   
N3       N      0.400290000000     0.389500000000     0.626660000000    -0.201758   
N4       N      0.120690000000     0.137590000000     0.885170000000    -0.189572   
N5       N      0.107710000000     0.883010000000     0.135890000000    -0.201155   
N6       N      0.396360000000     0.630130000000     0.383440000000    -0.18677    
N7       N      0.615280000000     0.384890000000     0.381630000000    -0.201753   
N8       N      0.917320000000     0.147080000000     0.136510000000    -0.190234   
N9       N      0.912480000000     0.883010000000     0.877940000000    -0.202705   
N10      N      0.611530000000     0.643370000000     0.630520000000    -0.187391   
N11      N      0.606210000000     0.385690000000     0.639150000000    -0.200589   
N12      N      0.906320000000     0.139200000000     0.880420000000    -0.190333   
N13      N      0.403440000000     0.642260000000     0.628150000000    -0.202021   
N14      N      0.123980000000     0.891790000000     0.889350000000    -0.188863   
N15      N      0.605630000000     0.645080000000     0.373990000000    -0.203175   
N16      N      0.903870000000     0.892250000000     0.132800000000    -0.187574   
O1       O      0.956130000000     0.901710000000     0.058520000000    -0.352411   
O2       O      0.958060000000     0.128170000000     0.954890000000    -0.364154   
O3       O      0.965780000000     0.069950000000     0.122770000000    -0.358878   
O4       O      0.962540000000     0.959710000000     0.891260000000    -0.362658   
O5       O      0.964630000000     0.132780000000     0.059910000000    -0.365022   
O6       O      0.962030000000     0.897080000000     0.953790000000    -0.342423   
O7       O      0.960070000000     0.065280000000     0.892070000000    -0.363586   
O8       O      0.958750000000     0.965150000000     0.120770000000    -0.352014   
O9       O      0.067370000000     0.901740000000     0.960420000000    -0.363189   
O10      O      0.069890000000     0.125630000000     0.052070000000    -0.366197   
O11      O      0.059730000000     0.960600000000     0.121700000000    -0.33449    
O12      O      0.067580000000     0.062960000000     0.896010000000    -0.366394   
O13      O      0.065980000000     0.127320000000     0.957380000000    -0.367199   
O14      O      0.061670000000     0.898510000000     0.058440000000    -0.363533   
O15      O      0.069500000000     0.965460000000     0.898400000000    -0.368411   
O16      O      0.074100000000     0.060030000000     0.111620000000    -0.347624   
O17      O      0.989100000000     0.014440000000     0.006590000000    -0.593941   
O18      O      0.558930000000     0.566920000000     0.389850000000    -0.344305   
O19      O      0.556140000000     0.461890000000     0.623050000000    -0.340965   
O20      O      0.560420000000     0.630520000000     0.555900000000    -0.355893   
O21      O      0.562580000000     0.397780000000     0.455430000000    -0.341592   
O22      O      0.559720000000     0.567920000000     0.619030000000    -0.351204   
O23      O      0.563540000000     0.460550000000     0.393100000000    -0.356227   
O24      O      0.559060000000     0.398220000000     0.561640000000    -0.348527   
O25      O      0.556720000000     0.631620000000     0.450230000000    -0.360443   
O26      O      0.455490000000     0.464460000000     0.395010000000    -0.363945   
O27      O      0.453810000000     0.565760000000     0.616080000000    -0.366741   
O28      O      0.450310000000     0.622160000000     0.456820000000    -0.358335   
O29      O      0.455660000000     0.401110000000     0.554490000000    -0.347649   
O30      O      0.452080000000     0.465300000000     0.615330000000    -0.364893   
O31      O      0.454750000000     0.559760000000     0.393680000000    -0.359565   
O32      O      0.459530000000     0.398670000000     0.454720000000    -0.347892   
O33      O      0.456350000000     0.629090000000     0.554270000000    -0.345424   
O34      O      0.532330000000     0.514230000000     0.506120000000    -0.595296   


