data_structure

_audit_creation_method RASPA-1.0
_audit_creation_date 2023-5-19
_audit_author_name 'Poobodin Mano'

_cell_length_a    26.0689
_cell_length_b    24.3064
_cell_length_c    24.3983
_cell_angle_alpha 90
_cell_angle_beta  90
_cell_angle_gamma 90
_cell_volume      15459.8

_symmetry_cell_setting          triclinic
_symmetry_space_group_name_Hall 'P 1'
_symmetry_space_group_name_H-M  'P 1'
_symmetry_Int_Tables_number     1

_symmetry_equiv_pos_as_xyz 'x,y,z'

loop_
_atom_site_label
_atom_site_type_symbol
_atom_site_fract_x
_atom_site_fract_y
_atom_site_fract_z
_atom_site_charge
C1       C      0.922740000000     0.920600000000     0.124770000000     0.40363    
C2       C      0.919970000000     0.126120000000     0.921280000000     0.400047   
C3       C      0.918220000000     0.122900000000     0.123940000000     0.399542   
C4       C      0.913790000000     0.928170000000     0.921900000000     0.400679   
C5       C      0.045440000000     0.925070000000     0.921990000000     0.397771   
C6       C      0.051480000000     0.121370000000     0.118690000000     0.396813   
C7       C      0.059020000000     0.931740000000     0.110180000000     0.396168   
C8       C      0.057070000000     0.117120000000     0.931570000000     0.394346   
C9       C      0.552130000000     0.622200000000     0.428620000000     0.392702   
C10      C      0.550750000000     0.429550000000     0.620530000000     0.397273   
C11      C      0.553330000000     0.616600000000     0.616880000000     0.393711   
C12      C      0.559970000000     0.435220000000     0.430480000000     0.396255   
C13      C      0.421920000000     0.422090000000     0.421200000000     0.399895   
C14      C      0.415170000000     0.624260000000     0.621190000000     0.401364   
C15      C      0.418630000000     0.626400000000     0.422050000000     0.399957   
C16      C      0.417460000000     0.421100000000     0.619330000000     0.401358   
C17      C      0.135810000000     0.234020000000     0.167650000000    -0.131477   
C18      C      0.376450000000     0.338030000000     0.407160000000     0.0701922  
C19      C      0.366590000000     0.411550000000     0.344170000000     0.0711204  
C20      C      0.340990000000     0.306360000000     0.377960000000    -0.0928393  
C21      C      0.284710000000     0.240740000000     0.288510000000    -0.0376024  
C22      C      0.247430000000     0.211610000000     0.259100000000    -0.0325479  
C23      C      0.277330000000     0.296540000000     0.301400000000    -0.00570349 
C24      C      0.330650000000     0.381240000000     0.314390000000    -0.0922491  
C25      C      0.201780000000     0.237590000000     0.242360000000    -0.0137087  
C26      C      0.150630000000     0.152530000000     0.220650000000    -0.101744   
C27      C      0.194130000000     0.293130000000     0.256440000000    -0.0324338  
C28      C      0.113220000000     0.125460000000     0.189830000000     0.0742223  
C29      C      0.097300000000     0.206630000000     0.137910000000     0.154291   
C30      C      0.231520000000     0.322280000000     0.285300000000    -0.0378414  
C31      C      0.317100000000     0.328200000000     0.331430000000     0.048206   
C32      C      0.162490000000     0.207440000000     0.209670000000     0.0650328  
C33      C      0.067180000000     0.241080000000     0.097320000000    -0.22289    
C34      C      0.330940000000     0.308030000000     0.664060000000    -0.131131   
C35      C      0.113430000000     0.194020000000     0.923760000000     0.0718282  
C36      C      0.115290000000     0.123700000000     0.856530000000     0.0705771  
C37      C      0.150940000000     0.223540000000     0.895370000000    -0.0929368  
C38      C      0.204770000000     0.292420000000     0.809260000000    -0.037248   
C39      C      0.239850000000     0.322330000000     0.777870000000    -0.0328237  
C40      C      0.209100000000     0.234930000000     0.813990000000    -0.00575132 
C41      C      0.152720000000     0.152190000000     0.827040000000    -0.0920162  
C42      C      0.280000000000     0.295480000000     0.750280000000    -0.0139328  
C43      C      0.336070000000     0.377350000000     0.733670000000    -0.103072   
C44      C      0.284640000000     0.238090000000     0.755300000000    -0.0329213  
C45      C      0.369480000000     0.407120000000     0.700450000000     0.0736958  
C46      C      0.364360000000     0.338830000000     0.630610000000     0.152787   
C47      C      0.249660000000     0.208170000000     0.786870000000    -0.0374475  
C48      C      0.170770000000     0.203000000000     0.846070000000     0.0482797  
C49      C      0.316420000000     0.327220000000     0.715720000000     0.0651524  
C50      C      0.375730000000     0.315370000000     0.574340000000    -0.222094   
C51      C      0.158070000000     0.828270000000     0.147650000000    -0.130793   
C52      C      0.368530000000     0.707700000000     0.410790000000     0.0717993  
C53      C      0.370380000000     0.640660000000     0.340250000000     0.0717388  
C54      C      0.335070000000     0.740310000000     0.380060000000    -0.0915449  
C55      C      0.240760000000     0.782800000000     0.320080000000    -0.0373588  
C56      C      0.206010000000     0.813310000000     0.288770000000    -0.0326374  
C57      C      0.282790000000     0.756580000000     0.295140000000    -0.00546299 
C58      C      0.337070000000     0.672330000000     0.308390000000    -0.0918698  
C59      C      0.212490000000     0.818370000000     0.231780000000    -0.0137729  
C60      C      0.153140000000     0.898150000000     0.216660000000    -0.102069   
C61      C      0.254960000000     0.792830000000     0.206970000000    -0.0328686  
C62      C      0.115880000000     0.924990000000     0.185620000000     0.0733027  
C63      C      0.120730000000     0.856090000000     0.116470000000     0.151101   
C64      C      0.289660000000     0.762260000000     0.238270000000    -0.037607   
C65      C      0.318880000000     0.722780000000     0.328190000000     0.0483033  
C66      C      0.174280000000     0.848870000000     0.198180000000     0.0645744  
C67      C      0.106880000000     0.830610000000     0.061850000000    -0.220727   
C68      C      0.659590000000     0.397920000000     0.328490000000    -0.131929   
C69      C      0.866240000000     0.132440000000     0.203840000000     0.0712817  
C70      C      0.869300000000     0.204370000000     0.138320000000     0.0706792  
C71      C      0.831550000000     0.162410000000     0.235710000000    -0.0917427  
C72      C      0.780290000000     0.247560000000     0.308870000000    -0.0374178  
C73      C      0.745440000000     0.278750000000     0.339430000000    -0.0327726  
C74      C      0.777800000000     0.246900000000     0.251260000000    -0.00563658 
C75      C      0.834880000000     0.235480000000     0.169250000000    -0.0924511  
C76      C      0.707520000000     0.310170000000     0.313030000000    -0.0140147  
C77      C      0.647710000000     0.323950000000     0.392230000000    -0.102727   
C78      C      0.704740000000     0.309130000000     0.255540000000    -0.0327704  
C79      C      0.612050000000     0.356020000000     0.420400000000     0.0743525  
C80      C      0.624420000000     0.430210000000     0.358100000000     0.153763   
C81      C      0.739360000000     0.277790000000     0.225040000000    -0.037471   
C82      C      0.815260000000     0.214540000000     0.218470000000     0.0480873  
C83      C      0.671110000000     0.344370000000     0.345080000000     0.0655174  
C84      C      0.618080000000     0.489230000000     0.339680000000    -0.222948   
C85      C      0.823230000000     0.885070000000     0.812400000000    -0.131568   
C86      C      0.609140000000     0.623750000000     0.694040000000     0.0716056  
C87      C      0.609990000000     0.693040000000     0.625730000000     0.0708139  
C88      C      0.646350000000     0.652040000000     0.724100000000    -0.0927564  
C89      C      0.700690000000     0.736620000000     0.794630000000    -0.0374713  
C90      C      0.735830000000     0.767750000000     0.824800000000    -0.0329319  
C91      C      0.704000000000     0.733980000000     0.737120000000    -0.00572934 
C92      C      0.647020000000     0.722510000000     0.654860000000    -0.0918378  
C93      C      0.774920000000     0.797230000000     0.798170000000    -0.0143188  
C94      C      0.832820000000     0.812910000000     0.878560000000    -0.104292   
C95      C      0.778640000000     0.794180000000     0.740800000000    -0.0330446  
C96      C      0.866490000000     0.846230000000     0.907990000000     0.0727838  
C97      C      0.856620000000     0.918660000000     0.843030000000     0.152476   
C98      C      0.743700000000     0.762800000000     0.710640000000    -0.0375779  
C99      C      0.665570000000     0.702290000000     0.704860000000     0.0481177  
C100     C      0.811050000000     0.832010000000     0.830020000000     0.0650465  
C101     C      0.864710000000     0.976690000000     0.821930000000    -0.221762   
C102     C      0.633570000000     0.381400000000     0.734420000000    -0.131671   
C103     C      0.874190000000     0.141000000000     0.837950000000     0.0700726  
C104     C      0.864790000000     0.203650000000     0.911780000000     0.0711523  
C105     C      0.838970000000     0.170870000000     0.806690000000    -0.0931898  
C106     C      0.784360000000     0.262430000000     0.742330000000    -0.0378464  
C107     C      0.747350000000     0.292170000000     0.713240000000    -0.0326123  
C108     C      0.776190000000     0.248420000000     0.797500000000    -0.0059197  
C109     C      0.829030000000     0.234070000000     0.881900000000    -0.0926614  
C110     C      0.701150000000     0.308040000000     0.738580000000    -0.0139661  
C111     C      0.651380000000     0.329560000000     0.653030000000    -0.1021     
C112     C      0.692840000000     0.293090000000     0.793600000000    -0.0325413  
C113     C      0.613970000000     0.359820000000     0.625470000000     0.0738251  
C114     C      0.594950000000     0.410500000000     0.706490000000     0.15409    
C115     C      0.730020000000     0.263940000000     0.822760000000    -0.0379916  
C116     C      0.815490000000     0.217590000000     0.828880000000     0.0482595  
C117     C      0.661800000000     0.340270000000     0.708110000000     0.0649676  
C118     C      0.562890000000     0.449790000000     0.740450000000    -0.223049   
C119     C      0.118960000000     0.808410000000     0.865100000000    -0.132108   
C120     C      0.369090000000     0.707690000000     0.635880000000     0.0721546  
C121     C      0.356590000000     0.631890000000     0.695670000000     0.0718719  
C122     C      0.333230000000     0.738670000000     0.665140000000    -0.0925032  
C123     C      0.278570000000     0.799660000000     0.759680000000    -0.037923   
C124     C      0.241320000000     0.828640000000     0.789090000000    -0.032598   
C125     C      0.268270000000     0.746510000000     0.740140000000    -0.00581516 
C126     C      0.319890000000     0.661350000000     0.725160000000    -0.0928699  
C127     C      0.192680000000     0.805370000000     0.798770000000    -0.014098   
C128     C      0.147910000000     0.893050000000     0.824930000000    -0.102483   
C129     C      0.182360000000     0.752390000000     0.778210000000    -0.0324468  
C130     C      0.110980000000     0.921200000000     0.855230000000     0.0742014  
C131     C      0.080590000000     0.837250000000     0.893580000000     0.151817   
C132     C      0.219900000000     0.723130000000     0.749670000000    -0.0381145  
C133     C      0.307840000000     0.715250000000     0.709910000000     0.0488573  
C134     C      0.152940000000     0.836070000000     0.830260000000     0.0643665  
C135     C      0.040370000000     0.803260000000     0.922980000000    -0.221756   
C136     C      0.836730000000     0.808940000000     0.172750000000    -0.131582   
C137     C      0.610010000000     0.698060000000     0.423670000000     0.0702339  
C138     C      0.602810000000     0.636680000000     0.348640000000     0.0684877  
C139     C      0.646790000000     0.728920000000     0.395540000000    -0.0914937  
C140     C      0.743700000000     0.768980000000     0.339010000000    -0.0374261  
C141     C      0.780960000000     0.798050000000     0.309580000000    -0.0330278  
C142     C      0.701350000000     0.745400000000     0.311970000000    -0.0057342  
C143     C      0.639760000000     0.666250000000     0.319600000000    -0.092607   
C144     C      0.776910000000     0.803700000000     0.252460000000    -0.0140053  
C145     C      0.836340000000     0.883280000000     0.237290000000    -0.102323   
C146     C      0.734370000000     0.780810000000     0.225520000000    -0.033021   
C147     C      0.872430000000     0.910690000000     0.205080000000     0.074351   
C148     C      0.874080000000     0.836390000000     0.141400000000     0.152484   
C149     C      0.696930000000     0.752260000000     0.254910000000    -0.0375087  
C150     C      0.662240000000     0.713170000000     0.342810000000     0.0474945  
C151     C      0.817260000000     0.832450000000     0.220570000000     0.0652565  
C152     C      0.894790000000     0.805600000000     0.092070000000    -0.219809   
Co1      Co     0.980070000000     0.942800000000     0.021010000000     0.836152   
Co2      Co     0.981100000000     0.105940000000     0.023030000000     0.837537   
Co3      Co     0.983000000000     0.023510000000     0.103230000000     0.836719   
Co4      Co     0.982060000000     0.025160000000     0.941600000000     0.835275   
Co5      Co     0.481750000000     0.525460000000     0.440600000000     0.836896   
Co6      Co     0.478800000000     0.523760000000     0.603290000000     0.836861   
Co7      Co     0.480970000000     0.605650000000     0.522860000000     0.838618   
Co8      Co     0.484030000000     0.443590000000     0.521740000000     0.836767   
H1       H      0.375540000000     0.452610000000     0.329660000000     0.0297671  
H2       H      0.106300000000     0.082610000000     0.199800000000     0.0297177  
H3       H      0.224310000000     0.364940000000     0.295590000000     0.0378886  
H4       H      0.254880000000     0.169090000000     0.248530000000     0.0360794  
H5       H      0.169760000000     0.130450000000     0.253330000000     0.054275   
H6       H      0.319820000000     0.219940000000     0.300120000000     0.0379849  
H7       H      0.144740000000     0.276510000000     0.158120000000     0.0602863  
H8       H      0.313570000000     0.399310000000     0.278130000000     0.0521683  
H9       H      0.331430000000     0.265540000000     0.392580000000     0.0510331  
H10      H      0.158960000000     0.314160000000     0.245520000000     0.0354204  
H11      H      0.393550000000     0.319780000000     0.443350000000     0.0248233  
H12      H      0.025360000000     0.236540000000     0.104710000000     0.0948807  
H13      H      0.075720000000     0.285700000000     0.101280000000     0.0718792  
H14      H      0.077130000000     0.228950000000     0.054840000000     0.096136   
H15      H      0.102150000000     0.084820000000     0.839860000000     0.0303671  
H16      H      0.383650000000     0.445540000000     0.717210000000     0.0281968  
H17      H      0.254640000000     0.164080000000     0.790330000000     0.0369514  
H18      H      0.234820000000     0.366410000000     0.774190000000     0.03606    
H19      H      0.326150000000     0.393470000000     0.773690000000     0.0539497  
H20      H      0.173530000000     0.314270000000     0.828810000000     0.0373599  
H21      H      0.315150000000     0.269540000000     0.649230000000     0.0606982  
H22      H      0.166470000000     0.134960000000     0.788830000000     0.0516625  
H23      H      0.164330000000     0.262220000000     0.912120000000     0.0509588  
H24      H      0.315620000000     0.216340000000     0.735160000000     0.0358555  
H25      H      0.098850000000     0.211800000000     0.961340000000     0.0243511  
H26      H      0.417080000000     0.305060000000     0.570770000000     0.0954764  
H27      H      0.354150000000     0.276800000000     0.566170000000     0.0719025  
H28      H      0.364030000000     0.345080000000     0.542120000000     0.095198   
H29      H      0.383220000000     0.601760000000     0.323350000000     0.0297122  
H30      H      0.100680000000     0.962790000000     0.202760000000     0.0309774  
H31      H      0.322120000000     0.743370000000     0.217940000000     0.0376514  
H32      H      0.173320000000     0.831800000000     0.309070000000     0.0366271  
H33      H      0.165290000000     0.916160000000     0.255150000000     0.0543021  
H34      H      0.233970000000     0.778660000000     0.363680000000     0.0380453  
H35      H      0.173920000000     0.789810000000     0.132850000000     0.0598204  
H36      H      0.325010000000     0.656830000000     0.268810000000     0.0517836  
H37      H      0.322430000000     0.779340000000     0.396700000000     0.0525366  
H38      H      0.261570000000     0.796680000000     0.163320000000     0.035421   
H39      H      0.380070000000     0.722990000000     0.450670000000     0.0310486  
H40      H      0.111860000000     0.861100000000     0.028400000000     0.0935084  
H41      H      0.131900000000     0.795140000000     0.051290000000     0.0694615  
H42      H      0.066910000000     0.814910000000     0.063300000000     0.0882236  
H43      H      0.883360000000     0.222330000000     0.100500000000     0.02795    
H44      H      0.594050000000     0.337130000000     0.455780000000     0.0301493  
H45      H      0.735620000000     0.277370000000     0.180830000000     0.0372298  
H46      H      0.748840000000     0.279190000000     0.383670000000     0.0358327  
H47      H      0.655720000000     0.282650000000     0.406550000000     0.0546309  
H48      H      0.809810000000     0.224820000000     0.330370000000     0.0375149  
H49      H      0.678940000000     0.415010000000     0.293010000000     0.0605744  
H50      H      0.824140000000     0.275990000000     0.154780000000     0.0510393  
H51      H      0.816960000000     0.144300000000     0.273150000000     0.0521112  
H52      H      0.675380000000     0.332170000000     0.234090000000     0.0362614  
H53      H      0.877480000000     0.092110000000     0.218560000000     0.0300498  
H54      H      0.622300000000     0.517290000000     0.375280000000     0.0934841  
H55      H      0.647920000000     0.501710000000     0.309620000000     0.0715324  
H56      H      0.580240000000     0.494810000000     0.319560000000     0.0964945  
H57      H      0.596580000000     0.710570000000     0.587450000000     0.0310545  
H58      H      0.882790000000     0.828470000000     0.944860000000     0.0218085  
H59      H      0.748020000000     0.760910000000     0.666540000000     0.0369131  
H60      H      0.731610000000     0.769850000000     0.868920000000     0.0355896  
H61      H      0.824560000000     0.771870000000     0.893480000000     0.0523847  
H62      H      0.670170000000     0.715700000000     0.816350000000     0.0371712  
H63      H      0.805580000000     0.900820000000     0.775340000000     0.0607719  
H64      H      0.660170000000     0.761510000000     0.638660000000     0.0517261  
H65      H      0.660100000000     0.634340000000     0.762090000000     0.0507242  
H66      H      0.808840000000     0.815800000000     0.719210000000     0.0357421  
H67      H      0.595170000000     0.585320000000     0.710730000000     0.0243928  
H68      H      0.904920000000     0.982060000000     0.807920000000     0.0955192  
H69      H      0.839650000000     0.986360000000     0.786370000000     0.0718151  
H70      H      0.854960000000     0.007040000000     0.854310000000     0.0947634  
H71      H      0.873870000000     0.217760000000     0.952810000000     0.0291646  
H72      H      0.608270000000     0.350130000000     0.582490000000     0.0295676  
H73      H      0.722330000000     0.252850000000     0.864980000000     0.0376629  
H74      H      0.755350000000     0.303510000000     0.671180000000     0.0357098  
H75      H      0.671650000000     0.297460000000     0.631150000000     0.0538953  
H76      H      0.819800000000     0.251290000000     0.721990000000     0.0378437  
H77      H      0.641290000000     0.390670000000     0.777080000000     0.0601519  
H78      H      0.812130000000     0.270410000000     0.900230000000     0.0518399  
H79      H      0.829310000000     0.156700000000     0.765880000000     0.0509771  
H80      H      0.657280000000     0.303360000000     0.814130000000     0.0351769  
H81      H      0.891010000000     0.104690000000     0.819430000000     0.0251328  
H82      H      0.521420000000     0.441160000000     0.734570000000     0.0941685  
H83      H      0.570400000000     0.445410000000     0.785080000000     0.0718252  
H84      H      0.571950000000     0.492880000000     0.729250000000     0.0960646  
H85      H      0.364680000000     0.590170000000     0.708840000000     0.0293165  
H86      H      0.109920000000     0.965590000000     0.850750000000     0.0280263  
H87      H      0.210860000000     0.682440000000     0.734310000000     0.0381102  
H88      H      0.251010000000     0.868920000000     0.804940000000     0.0354051  
H89      H      0.172350000000     0.916140000000     0.797380000000     0.0537858  
H90      H      0.315800000000     0.818350000000     0.753130000000     0.0383595  
H91      H      0.121710000000     0.764170000000     0.869730000000     0.0591395  
H92      H      0.301210000000     0.642120000000     0.759910000000     0.0521813  
H93      H      0.324650000000     0.780280000000     0.652110000000     0.0529808  
H94      H      0.145060000000     0.733570000000     0.783550000000     0.0348119  
H95      H      0.387460000000     0.727090000000     0.601000000000     0.0305332  
H96      H      0.001370000000     0.819340000000     0.914080000000     0.0913484  
H97      H      0.040650000000     0.759700000000     0.909140000000     0.0701091  
H98      H      0.047520000000     0.803440000000     0.967670000000     0.0863533  
H99      H      0.585780000000     0.601460000000     0.328460000000     0.0246923  
H100     H      0.884600000000     0.950850000000     0.219420000000     0.0302102  
H101     H      0.664310000000     0.735860000000     0.232810000000     0.0371785  
H102     H      0.813600000000     0.814930000000     0.331320000000     0.036302   
H103     H      0.822310000000     0.902720000000     0.274340000000     0.0549714  
H104     H      0.748760000000     0.763960000000     0.382770000000     0.0368939  
H105     H      0.823250000000     0.768620000000     0.160300000000     0.0601593  
H106     H      0.650830000000     0.651970000000     0.279260000000     0.0495378  
H107     H      0.662460000000     0.765330000000     0.414890000000     0.0516561  
H108     H      0.729850000000     0.785320000000     0.181600000000     0.0361731  
H109     H      0.599350000000     0.711750000000     0.464410000000     0.0308587  
H110     H      0.937370000000     0.804840000000     0.092990000000     0.0895474  
H111     H      0.882300000000     0.761880000000     0.091480000000     0.0695303  
H112     H      0.880590000000     0.824780000000     0.053660000000     0.0930352  
N1       N      0.087000000000     0.151440000000     0.148190000000    -0.203967   
N2       N      0.388750000000     0.390520000000     0.390770000000    -0.191341   
N3       N      0.384040000000     0.388680000000     0.649310000000    -0.204923   
N4       N      0.095320000000     0.144700000000     0.904280000000    -0.190497   
N5       N      0.098470000000     0.904130000000     0.136440000000    -0.203947   
N6       N      0.386010000000     0.658130000000     0.391130000000    -0.190516   
N7       N      0.598860000000     0.408100000000     0.402990000000    -0.204378   
N8       N      0.884790000000     0.153120000000     0.155320000000    -0.191257   
N9       N      0.879110000000     0.898530000000     0.890760000000    -0.205752   
N10      N      0.590820000000     0.644200000000     0.645340000000    -0.190218   
N11      N      0.586220000000     0.400600000000     0.651140000000    -0.20441    
N12      N      0.886700000000     0.156980000000     0.890320000000    -0.191629   
N13      N      0.078590000000     0.894190000000     0.890670000000    -0.206172   
N14      N      0.380600000000     0.654610000000     0.650930000000    -0.191286   
N15      N      0.890400000000     0.888770000000     0.156620000000    -0.204939   
N16      N      0.588260000000     0.652110000000     0.400490000000    -0.190234   
O1       O      0.935720000000     0.904430000000     0.077050000000    -0.377039   
O2       O      0.932870000000     0.142760000000     0.969090000000    -0.368152   
O3       O      0.933580000000     0.075860000000     0.140880000000    -0.364804   
O4       O      0.931150000000     0.974140000000     0.904740000000    -0.371306   
O5       O      0.933670000000     0.142130000000     0.077990000000    -0.367236   
O6       O      0.929430000000     0.908660000000     0.967720000000    -0.369226   
O7       O      0.937100000000     0.080610000000     0.902390000000    -0.368344   
O8       O      0.938270000000     0.967340000000     0.142560000000    -0.364642   
O9       O      0.026800000000     0.905170000000     0.966170000000    -0.375237   
O10      O      0.033720000000     0.140110000000     0.073640000000    -0.372605   
O11      O      0.041680000000     0.976430000000     0.130820000000    -0.37053    
O12      O      0.040000000000     0.071870000000     0.912060000000    -0.369944   
O13      O      0.038140000000     0.137430000000     0.975570000000    -0.371214   
O14      O      0.038850000000     0.912220000000     0.066590000000    -0.380555   
O15      O      0.034310000000     0.974100000000     0.907080000000    -0.368421   
O16      O      0.036660000000     0.074380000000     0.136510000000    -0.364729   
O17      O      0.960170000000     0.024510000000     0.022550000000    -0.59094    
O18      O      0.534030000000     0.577970000000     0.407610000000    -0.368887   
O19      O      0.531450000000     0.474090000000     0.639050000000    -0.372264   
O20      O      0.536680000000     0.636490000000     0.571740000000    -0.367856   
O21      O      0.542440000000     0.414960000000     0.475110000000    -0.371042   
O22      O      0.534880000000     0.571740000000     0.636090000000    -0.371321   
O23      O      0.540040000000     0.478850000000     0.410410000000    -0.376134   
O24      O      0.537560000000     0.411680000000     0.573200000000    -0.367925   
O25      O      0.536510000000     0.639140000000     0.475360000000    -0.366339   
O26      O      0.434320000000     0.470150000000     0.404310000000    -0.367498   
O27      O      0.428170000000     0.576420000000     0.638000000000    -0.368978   
O28      O      0.433150000000     0.643490000000     0.469180000000    -0.364284   
O29      O      0.435190000000     0.404410000000     0.573470000000    -0.370785   
O30      O      0.431080000000     0.468050000000     0.638160000000    -0.366888   
O31      O      0.434360000000     0.580170000000     0.403370000000    -0.36359    
O32      O      0.439290000000     0.403600000000     0.466640000000    -0.368353   
O33      O      0.433590000000     0.643820000000     0.576670000000    -0.364873   
O34      O      0.459940000000     0.524140000000     0.521530000000    -0.590575   


