data_structure

_audit_creation_method RASPA-1.0
_audit_creation_date 2023-5-19
_audit_author_name 'Poobodin Mano'

_cell_length_a    25.2806
_cell_length_b    24.8535
_cell_length_c    24.6533
_cell_angle_alpha 90
_cell_angle_beta  90
_cell_angle_gamma 90
_cell_volume      15489.9

_symmetry_cell_setting          triclinic
_symmetry_space_group_name_Hall 'P 1'
_symmetry_space_group_name_H-M  'P 1'
_symmetry_Int_Tables_number     1

_symmetry_equiv_pos_as_xyz 'x,y,z'

loop_
_atom_site_label
_atom_site_type_symbol
_atom_site_fract_x
_atom_site_fract_y
_atom_site_fract_z
_atom_site_charge
C1       C      0.930810000000     0.905380000000     0.109780000000     0.399391   
C2       C      0.926720000000     0.108840000000     0.906010000000     0.399375   
C3       C      0.912880000000     0.099520000000     0.103990000000     0.404673   
C4       C      0.927540000000     0.906940000000     0.910020000000     0.400835   
C5       C      0.065070000000     0.918730000000     0.914350000000     0.394036   
C6       C      0.053870000000     0.106980000000     0.105950000000     0.39168    
C7       C      0.073490000000     0.923900000000     0.096000000000     0.395315   
C8       C      0.068120000000     0.097320000000     0.922710000000     0.395588   
C9       C      0.574420000000     0.593050000000     0.421150000000     0.395815   
C10      C      0.557370000000     0.413730000000     0.603570000000     0.39971    
C11      C      0.561320000000     0.603390000000     0.604550000000     0.397861   
C12      C      0.561020000000     0.414300000000     0.417450000000     0.394004   
C13      C      0.412760000000     0.419680000000     0.413730000000     0.405176   
C14      C      0.431610000000     0.614110000000     0.609220000000     0.405274   
C15      C      0.431160000000     0.611180000000     0.405890000000     0.398789   
C16      C      0.422010000000     0.411870000000     0.609440000000     0.398055   
C17      C      0.313200000000     0.384660000000     0.309870000000    -0.140228   
C18      C      0.109330000000     0.118700000000     0.183240000000     0.0676735  
C19      C      0.102850000000     0.188070000000     0.117530000000     0.0679299  
C20      C      0.145330000000     0.149160000000     0.213240000000    -0.0922591  
C21      C      0.244510000000     0.211300000000     0.247160000000    -0.0380052  
C22      C      0.279680000000     0.242720000000     0.277300000000    -0.031517   
C23      C      0.197460000000     0.233650000000     0.226940000000    -0.00529363 
C24      C      0.138230000000     0.219840000000     0.146870000000    -0.0923581  
C25      C      0.268270000000     0.297040000000     0.288360000000    -0.0151583  
C26      C      0.330650000000     0.308230000000     0.366590000000    -0.104895   
C27      C      0.220980000000     0.319200000000     0.268160000000    -0.0311911  
C28      C      0.364710000000     0.339790000000     0.397540000000     0.07842    
C29      C      0.345380000000     0.416650000000     0.343400000000     0.186248   
C30      C      0.186150000000     0.287930000000     0.237530000000    -0.0378867  
C31      C      0.160030000000     0.200380000000     0.195180000000     0.0476473  
C32      C      0.305070000000     0.330210000000     0.321550000000     0.0702623  
C33      C      0.172360000000     0.196690000000     0.890980000000    -0.13992    
C34      C      0.367510000000     0.334520000000     0.621120000000     0.0718998  
C35      C      0.376210000000     0.397340000000     0.692850000000     0.0707465  
C36      C      0.333640000000     0.302920000000     0.652530000000    -0.0910439  
C37      C      0.286820000000     0.228190000000     0.736270000000    -0.0373699  
C38      C      0.252590000000     0.196510000000     0.767290000000    -0.0318231  
C39      C      0.285240000000     0.284710000000     0.739760000000    -0.00478421 
C40      C      0.342810000000     0.366380000000     0.725590000000    -0.0911104  
C41      C      0.216280000000     0.220480000000     0.803010000000    -0.0149653  
C42      C      0.153160000000     0.143360000000     0.812260000000    -0.104702   
C43      C      0.215040000000     0.276850000000     0.807160000000    -0.031692   
C44      C      0.118180000000     0.112710000000     0.843190000000     0.0775551  
C45      C      0.139080000000     0.163460000000     0.922200000000     0.185148   
C46      C      0.248930000000     0.308610000000     0.775730000000    -0.0372671  
C47      C      0.320980000000     0.318430000000     0.705630000000     0.0479584  
C48      C      0.179700000000     0.186740000000     0.835700000000     0.0698722  
C49      C      0.179320000000     0.891810000000     0.194210000000    -0.139096   
C50      C      0.379540000000     0.623950000000     0.325930000000     0.0694637  
C51      C      0.386000000000     0.694090000000     0.390780000000     0.0712717  
C52      C      0.345530000000     0.655120000000     0.294180000000    -0.0921671  
C53      C      0.248040000000     0.718220000000     0.257430000000    -0.0376649  
C54      C      0.213150000000     0.749700000000     0.226980000000    -0.0315232  
C55      C      0.294960000000     0.740430000000     0.278130000000    -0.00510936 
C56      C      0.352670000000     0.726590000000     0.359620000000    -0.0918401  
C57      C      0.224610000000     0.804040000000     0.215930000000    -0.014712   
C58      C      0.161100000000     0.814920000000     0.138450000000    -0.104286   
C59      C      0.271820000000     0.826090000000     0.236530000000    -0.0313944  
C60      C      0.125370000000     0.845790000000     0.108720000000     0.0772315  
C61      C      0.145240000000     0.923060000000     0.161820000000     0.184972   
C62      C      0.306410000000     0.794730000000     0.267540000000    -0.0378547  
C63      C      0.331650000000     0.707040000000     0.310950000000     0.0481351  
C64      C      0.187570000000     0.837260000000     0.182790000000     0.0692373  
C65      C      0.815430000000     0.201960000000     0.146030000000    -0.140845   
C66      C      0.619000000000     0.338760000000     0.412690000000     0.0707336  
C67      C      0.615470000000     0.400820000000     0.339790000000     0.0716775  
C68      C      0.656000000000     0.307540000000     0.384730000000    -0.0912979  
C69      C      0.707460000000     0.232290000000     0.303860000000    -0.0372829  
C70      C      0.741090000000     0.200400000000     0.272380000000    -0.0317429  
C71      C      0.710090000000     0.288800000000     0.301050000000    -0.00489974 
C72      C      0.651950000000     0.370280000000     0.310520000000    -0.0912262  
C73      C      0.777730000000     0.224260000000     0.236960000000    -0.015343   
C74      C      0.837660000000     0.145540000000     0.221690000000    -0.105391   
C75      C      0.780960000000     0.280610000000     0.234570000000    -0.0317719  
C76      C      0.869340000000     0.114600000000     0.187490000000     0.0783954  
C77      C      0.845150000000     0.168520000000     0.111580000000     0.186429   
C78      C      0.747780000000     0.312520000000     0.266490000000    -0.0374708  
C79      C      0.672590000000     0.322780000000     0.332690000000     0.0480264  
C80      C      0.811370000000     0.190530000000     0.201330000000     0.0707116  
C81      C      0.651240000000     0.710900000000     0.651410000000    -0.142275   
C82      C      0.884560000000     0.822850000000     0.895690000000     0.0723851  
C83      C      0.874220000000     0.893110000000     0.831530000000     0.0720248  
C84      C      0.852100000000     0.789220000000     0.864920000000    -0.09173    
C85      C      0.757070000000     0.739240000000     0.810050000000    -0.0375497  
C86      C      0.721360000000     0.708670000000     0.779740000000    -0.031609   
C87      C      0.793560000000     0.773400000000     0.784130000000    -0.00494108 
C88      C      0.841250000000     0.860670000000     0.799990000000    -0.0914473  
C89      C      0.721030000000     0.711890000000     0.722880000000    -0.0157896  
C90      C      0.666210000000     0.630310000000     0.702830000000    -0.105479   
C91      C      0.758130000000     0.745080000000     0.696830000000    -0.0318598  
C92      C      0.625560000000     0.605340000000     0.674100000000     0.0739531  
C93      C      0.608350000000     0.686160000000     0.625150000000     0.182883   
C94      C      0.794160000000     0.775320000000     0.727100000000    -0.0377582  
C95      C      0.829710000000     0.808010000000     0.816530000000     0.0485234  
C96      C      0.679880000000     0.683420000000     0.691100000000     0.0694779  
C97      C      0.646670000000     0.366670000000     0.712520000000    -0.141048   
C98      C      0.882940000000     0.123930000000     0.821700000000     0.0714645  
C99      C      0.874220000000     0.187450000000     0.892830000000     0.0702655  
C100     C      0.849840000000     0.154660000000     0.788540000000    -0.0913101  
C101     C      0.753890000000     0.209190000000     0.739910000000    -0.0374421  
C102     C      0.717500000000     0.239240000000     0.709840000000    -0.031676   
C103     C      0.790630000000     0.234840000000     0.774150000000    -0.00495053 
C104     C      0.840600000000     0.218890000000     0.860940000000    -0.0914504  
C105     C      0.716630000000     0.295630000000     0.713610000000    -0.0154141  
C106     C      0.661800000000     0.315710000000     0.631330000000    -0.105211   
C107     C      0.753800000000     0.321420000000     0.747050000000    -0.0319231  
C108     C      0.621380000000     0.344450000000     0.605960000000     0.076696   
C109     C      0.604050000000     0.393080000000     0.687330000000     0.185387   
C110     C      0.790530000000     0.291420000000     0.776760000000    -0.0376316  
C111     C      0.827770000000     0.202640000000     0.808080000000     0.0478537  
C112     C      0.675320000000     0.327170000000     0.684950000000     0.0699837  
C113     C      0.357080000000     0.668980000000     0.725250000000    -0.141877   
C114     C      0.116850000000     0.908500000000     0.834280000000     0.0721001  
C115     C      0.126970000000     0.846920000000     0.907000000000     0.0719007  
C116     C      0.153640000000     0.879990000000     0.803370000000    -0.0914622  
C117     C      0.252100000000     0.827710000000     0.757230000000    -0.0374413  
C118     C      0.288050000000     0.797660000000     0.726640000000    -0.0316159  
C119     C      0.215820000000     0.801960000000     0.791860000000    -0.00488833 
C120     C      0.164240000000     0.817760000000     0.877390000000    -0.0915215  
C121     C      0.288780000000     0.741290000000     0.730390000000    -0.0156162  
C122     C      0.338000000000     0.720140000000     0.644970000000    -0.105876   
C123     C      0.252480000000     0.715480000000     0.764740000000    -0.0315505  
C124     C      0.374530000000     0.688980000000     0.616570000000     0.0768646  
C125     C      0.395790000000     0.639980000000     0.696720000000     0.186734   
C126     C      0.216240000000     0.745440000000     0.794930000000    -0.0373582  
C127     C      0.177600000000     0.833740000000     0.824640000000     0.0485743  
C128     C      0.328030000000     0.709370000000     0.699530000000     0.070881   
C129     C      0.681320000000     0.688540000000     0.387850000000    -0.140411   
C130     C      0.879140000000     0.825730000000     0.120170000000     0.0714669  
C131     C      0.885970000000     0.887610000000     0.192940000000     0.072134   
C132     C      0.845360000000     0.793110000000     0.150730000000    -0.0910268  
C133     C      0.796090000000     0.717700000000     0.233230000000    -0.0373891  
C134     C      0.761440000000     0.686230000000     0.264070000000    -0.0318912  
C135     C      0.794780000000     0.774230000000     0.236690000000    -0.00482313 
C136     C      0.852720000000     0.855710000000     0.224770000000    -0.0910829  
C137     C      0.724990000000     0.710510000000     0.299460000000    -0.0150968  
C138     C      0.661650000000     0.633640000000     0.310340000000    -0.104696   
C139     C      0.723650000000     0.766890000000     0.303050000000    -0.0317301  
C140     C      0.625970000000     0.604360000000     0.341850000000     0.0772098  
C141     C      0.647330000000     0.656730000000     0.419660000000     0.185654   
C142     C      0.757900000000     0.798370000000     0.271870000000    -0.0373459  
C143     C      0.831500000000     0.807960000000     0.203730000000     0.0480405  
C144     C      0.688560000000     0.677300000000     0.332820000000     0.0698886  
Co1      Co     0.991830000000     0.929350000000     0.008700000000     0.836785   
Co2      Co     0.985450000000     0.087920000000     0.009150000000     0.837142   
Co3      Co     0.988660000000     0.008030000000     0.089290000000     0.832344   
Co4      Co     0.988180000000     0.008670000000     0.928710000000     0.833274   
Co5      Co     0.489790000000     0.509340000000     0.428410000000     0.836977   
Co6      Co     0.487890000000     0.510180000000     0.588740000000     0.831145   
Co7      Co     0.491590000000     0.589310000000     0.507870000000     0.837109   
Co8      Co     0.485220000000     0.430400000000     0.509130000000     0.837864   
H1       H      0.087050000000     0.204690000000     0.080240000000     0.0310864  
H2       H      0.384960000000     0.319920000000     0.430750000000     0.0291642  
H3       H      0.149780000000     0.305950000000     0.223020000000     0.0389414  
H4       H      0.316060000000     0.224520000000     0.291490000000     0.0362196  
H5       H      0.324480000000     0.266650000000     0.378130000000     0.0557847  
H6       H      0.254430000000     0.169660000000     0.239050000000     0.0371395  
H7       H      0.292830000000     0.403070000000     0.275930000000     0.06504    
H8       H      0.148890000000     0.259200000000     0.131470000000     0.0515395  
H9       H      0.160860000000     0.133040000000     0.250840000000     0.0515787  
H10      H      0.210250000000     0.360490000000     0.276820000000     0.0357564  
H11      H      0.098430000000     0.079600000000     0.199150000000     0.0294331  
H12      H      0.322530000000     0.487740000000     0.303640000000     0.0886605  
H13      H      0.356000000000     0.498570000000     0.365190000000     0.113515   
H14      H      0.392340000000     0.433970000000     0.710100000000     0.0283954  
H15      H      0.096730000000     0.081230000000     0.822090000000     0.0306086  
H16      H      0.245910000000     0.351950000000     0.778960000000     0.0380924  
H17      H      0.255060000000     0.153130000000     0.763860000000     0.036386   
H18      H      0.158020000000     0.134100000000     0.769610000000     0.0562167  
H19      H      0.314940000000     0.208220000000     0.709970000000     0.0380198  
H20      H      0.195020000000     0.228240000000     0.910540000000     0.0654892  
H21      H      0.334860000000     0.379720000000     0.766600000000     0.0515789  
H22      H      0.317010000000     0.266830000000     0.634800000000     0.0525668  
H23      H      0.187100000000     0.296450000000     0.833980000000     0.0376285  
H24      H      0.376000000000     0.320790000000     0.580290000000     0.0314651  
H25      H      0.163510000000     0.199220000000     0.995240000000     0.0889974  
H26      H      0.127480000000     0.139130000000     0.003670000000     0.110182   
H27      H      0.400860000000     0.710670000000     0.428490000000     0.0299053  
H28      H      0.104350000000     0.825400000000     0.076340000000     0.0302815  
H29      H      0.342610000000     0.812730000000     0.282480000000     0.0384854  
H30      H      0.176810000000     0.731510000000     0.212690000000     0.0366263  
H31      H      0.167480000000     0.773420000000     0.126770000000     0.0552553  
H32      H      0.237840000000     0.676670000000     0.265590000000     0.0378324  
H33      H      0.200570000000     0.910760000000     0.227260000000     0.0647954  
H34      H      0.342590000000     0.766430000000     0.374160000000     0.0526048  
H35      H      0.330530000000     0.638770000000     0.256460000000     0.0515511  
H36      H      0.282610000000     0.867390000000     0.228040000000     0.0353245  
H37      H      0.389280000000     0.584030000000     0.311300000000     0.0279662  
H38      H      0.168710000000     0.995010000000     0.199530000000     0.0881289  
H39      H      0.131980000000     0.004150000000     0.139470000000     0.110323   
H40      H      0.600300000000     0.436960000000     0.320690000000     0.0319155  
H41      H      0.890910000000     0.081680000000     0.206070000000     0.0296155  
H42      H      0.751770000000     0.355820000000     0.264040000000     0.0376527  
H43      H      0.737360000000     0.157040000000     0.274550000000     0.0366814  
H44      H      0.835050000000     0.135130000000     0.264280000000     0.056437   
H45      H      0.678420000000     0.212520000000     0.329250000000     0.0380392  
H46      H      0.792730000000     0.234940000000     0.129050000000     0.06589    
H47      H      0.662850000000     0.383380000000     0.270150000000     0.0521517  
H48      H      0.671550000000     0.271740000000     0.404030000000     0.0516643  
H49      H      0.809340000000     0.300010000000     0.208080000000     0.0373572  
H50      H      0.607090000000     0.325200000000     0.452670000000     0.029989   
H51      H      0.817500000000     0.207860000000     0.041660000000     0.0893087  
H52      H      0.850390000000     0.146880000000     0.028420000000     0.112322   
H53      H      0.881810000000     0.933650000000     0.817280000000     0.0302359  
H54      H      0.617960000000     0.563370000000     0.683370000000     0.0290316  
H55      H      0.822380000000     0.800330000000     0.705750000000     0.0379621  
H56      H      0.692680000000     0.684020000000     0.800920000000     0.0361977  
H57      H      0.687410000000     0.607780000000     0.733540000000     0.0550303  
H58      H      0.754880000000     0.737320000000     0.853870000000     0.0379051  
H59      H      0.659540000000     0.753070000000     0.643950000000     0.0648716  
H60      H      0.824160000000     0.877320000000     0.763370000000     0.0522117  
H61      H      0.844980000000     0.748560000000     0.878930000000     0.0523469  
H62      H      0.759060000000     0.747870000000     0.652990000000     0.0356039  
H63      H      0.900920000000     0.806530000000     0.932870000000     0.0306939  
H64      H      0.585400000000     0.758600000000     0.588040000000     0.0893202  
H65      H      0.537280000000     0.707780000000     0.584460000000     0.116416   
H66      H      0.882580000000     0.201450000000     0.933600000000     0.0283752  
H67      H      0.613980000000     0.335320000000     0.563600000000     0.0287036  
H68      H      0.818860000000     0.312660000000     0.801800000000     0.0379189  
H69      H      0.688830000000     0.218200000000     0.685000000000     0.0367793  
H70      H      0.682990000000     0.285240000000     0.608630000000     0.0555018  
H71      H      0.752090000000     0.165730000000     0.737470000000     0.0378543  
H72      H      0.654850000000     0.374040000000     0.755060000000     0.0652164  
H73      H      0.823900000000     0.255150000000     0.878250000000     0.0511224  
H74      H      0.841900000000     0.140870000000     0.747690000000     0.0523214  
H75      H      0.754390000000     0.364890000000     0.750290000000     0.0364324  
H76      H      0.898870000000     0.087030000000     0.804870000000     0.0303795  
H77      H      0.580990000000     0.430060000000     0.760230000000     0.0885679  
H78      H      0.533310000000     0.434300000000     0.708620000000     0.114553   
H79      H      0.117660000000     0.832830000000     0.947520000000     0.0316803  
H80      H      0.378860000000     0.697280000000     0.573600000000     0.0272381  
H81      H      0.188180000000     0.724170000000     0.820250000000     0.0384412  
H82      H      0.316080000000     0.818600000000     0.700960000000     0.036316   
H83      H      0.316470000000     0.751420000000     0.623770000000     0.0560072  
H84      H      0.253440000000     0.871170000000     0.754440000000     0.0377152  
H85      H      0.351930000000     0.662300000000     0.768410000000     0.0658566  
H86      H      0.182600000000     0.782990000000     0.896010000000     0.0522401  
H87      H      0.162280000000     0.893590000000     0.762590000000     0.0525453  
H88      H      0.251810000000     0.672010000000     0.767870000000     0.0372907  
H89      H      0.098900000000     0.943710000000     0.815950000000     0.0317944  
H90      H      0.423680000000     0.602730000000     0.767680000000     0.089296   
H91      H      0.465540000000     0.594570000000     0.711280000000     0.114022   
H92      H      0.901190000000     0.924280000000     0.210960000000     0.0312998  
H93      H      0.604060000000     0.572740000000     0.321500000000     0.0301381  
H94      H      0.754880000000     0.841730000000     0.274860000000     0.0380037  
H95      H      0.763820000000     0.642830000000     0.260960000000     0.0362646  
H96      H      0.666560000000     0.623320000000     0.267940000000     0.0558707  
H97      H      0.824470000000     0.697600000000     0.207320000000     0.0377993  
H98      H      0.704360000000     0.720200000000     0.406780000000     0.065398   
H99      H      0.844110000000     0.868410000000     0.265850000000     0.0523876  
H100     H      0.829460000000     0.757000000000     0.132350000000     0.0520529  
H101     H      0.695490000000     0.786740000000     0.329450000000     0.0372885  
H102     H      0.888340000000     0.812810000000     0.079230000000     0.0303925  
H103     H      0.671970000000     0.693810000000     0.492000000000     0.0906344  
H104     H      0.634780000000     0.634630000000     0.501630000000     0.114861   
N1       N      0.373910000000     0.392990000000     0.385230000000    -0.209533   
N2       N      0.088560000000     0.137770000000     0.135460000000    -0.190551   
N3       N      0.343320000000     0.470990000000     0.336180000000    -0.218206   
N4       N      0.109000000000     0.123890000000     0.897070000000    -0.207658   
N5       N      0.388690000000     0.381440000000     0.641040000000    -0.190391   
N6       N      0.141460000000     0.168470000000     0.977160000000    -0.217539   
N7       N      0.115210000000     0.898680000000     0.121630000000    -0.207615   
N8       N      0.399230000000     0.643020000000     0.374210000000    -0.190957   
N9       N      0.146660000000     0.977450000000     0.168320000000    -0.217733   
N10      N      0.875200000000     0.127010000000     0.133390000000    -0.209313   
N11      N      0.598530000000     0.384850000000     0.390220000000    -0.189611   
N12      N      0.839370000000     0.175590000000     0.057060000000    -0.217859   
N13      N      0.597660000000     0.632080000000     0.634440000000    -0.209987   
N14      N      0.895540000000     0.874460000000     0.879200000000    -0.190962   
N15      N      0.575660000000     0.718380000000     0.595450000000    -0.218539   
N16      N      0.593510000000     0.383950000000     0.632750000000    -0.208383   
N17      N      0.894900000000     0.140030000000     0.873590000000    -0.190906   
N18      N      0.571450000000     0.422860000000     0.719600000000    -0.218354   
N19      N      0.401610000000     0.647650000000     0.641250000000    -0.210733   
N20      N      0.103040000000     0.891680000000     0.885440000000    -0.18949    
N21      N      0.429550000000     0.608700000000     0.726140000000    -0.218728   
N22      N      0.616520000000     0.617300000000     0.395290000000    -0.207857   
N23      N      0.898960000000     0.872910000000     0.140900000000    -0.190268   
N24      N      0.649470000000     0.663060000000     0.474510000000    -0.217517   
O1       O      0.944320000000     0.890230000000     0.062130000000    -0.366303   
O2       O      0.939530000000     0.125550000000     0.953320000000    -0.3679     
O3       O      0.931730000000     0.055350000000     0.122510000000    -0.365464   
O4       O      0.939570000000     0.954070000000     0.893030000000    -0.365581   
O5       O      0.931110000000     0.119780000000     0.060190000000    -0.367082   
O6       O      0.945370000000     0.889580000000     0.955300000000    -0.365317   
O7       O      0.942990000000     0.063200000000     0.888740000000    -0.366686   
O8       O      0.946230000000     0.950770000000     0.128500000000    -0.362918   
O9       O      0.050030000000     0.900420000000     0.960330000000    -0.3625     
O10      O      0.035870000000     0.124870000000     0.060940000000    -0.366353   
O11      O      0.051920000000     0.965450000000     0.117250000000    -0.367898   
O12      O      0.049090000000     0.054480000000     0.901490000000    -0.367451   
O13      O      0.047100000000     0.117360000000     0.965340000000    -0.37002    
O14      O      0.054200000000     0.903180000000     0.052820000000    -0.368597   
O15      O      0.044230000000     0.961310000000     0.894500000000    -0.361489   
O16      O      0.039850000000     0.060760000000     0.123750000000    -0.368912   
O17      O      0.965950000000     0.007670000000     0.009050000000    -0.589891   
O18      O      0.553840000000     0.550440000000     0.400960000000    -0.368411   
O19      O      0.542880000000     0.459950000000     0.620700000000    -0.37328    
O20      O      0.546610000000     0.620740000000     0.558220000000    -0.372093   
O21      O      0.542970000000     0.397180000000     0.462770000000    -0.370666   
O22      O      0.543290000000     0.558810000000     0.622950000000    -0.369113   
O23      O      0.543930000000     0.458200000000     0.396790000000    -0.365457   
O24      O      0.539550000000     0.395470000000     0.558550000000    -0.365518   
O25      O      0.553800000000     0.615220000000     0.462880000000    -0.369342   
O26      O      0.434030000000     0.461940000000     0.393920000000    -0.368244   
O27      O      0.443030000000     0.566820000000     0.625820000000    -0.368601   
O28      O      0.446590000000     0.628330000000     0.452210000000    -0.367806   
O29      O      0.435690000000     0.394600000000     0.562610000000    -0.361384   
O30      O      0.439440000000     0.456950000000     0.627210000000    -0.365996   
O31      O      0.444700000000     0.564450000000     0.389110000000    -0.367885   
O32      O      0.429100000000     0.400330000000     0.458840000000    -0.368302   
O33      O      0.446380000000     0.629930000000     0.562170000000    -0.369041   
O34      O      0.466280000000     0.510780000000     0.508220000000    -0.590409   


