data_structure

_audit_creation_method RASPA-1.0
_audit_creation_date 2023-5-19
_audit_author_name 'Poobodin Mano'

_cell_length_a    25.7592
_cell_length_b    24.4645
_cell_length_c    24.5935
_cell_angle_alpha 90
_cell_angle_beta  90
_cell_angle_gamma 90
_cell_volume      15498.5

_symmetry_cell_setting          triclinic
_symmetry_space_group_name_Hall 'P 1'
_symmetry_space_group_name_H-M  'P 1'
_symmetry_Int_Tables_number     1

_symmetry_equiv_pos_as_xyz 'x,y,z'

loop_
_atom_site_label
_atom_site_type_symbol
_atom_site_fract_x
_atom_site_fract_y
_atom_site_fract_z
_atom_site_charge
C1       C      0.925250000000     0.922950000000     0.122060000000     0.400875   
C2       C      0.920160000000     0.118030000000     0.915420000000     0.400113   
C3       C      0.920570000000     0.122350000000     0.119430000000     0.402345   
C4       C      0.923990000000     0.919860000000     0.920980000000     0.409207   
C5       C      0.060770000000     0.928450000000     0.927540000000     0.391258   
C6       C      0.059060000000     0.119130000000     0.107070000000     0.402525   
C7       C      0.063940000000     0.933290000000     0.111370000000     0.402435   
C8       C      0.058190000000     0.116410000000     0.928560000000     0.391852   
C9       C      0.562760000000     0.614940000000     0.428580000000     0.403012   
C10      C      0.558290000000     0.426120000000     0.609000000000     0.403231   
C11      C      0.561850000000     0.614500000000     0.611750000000     0.395469   
C12      C      0.557040000000     0.427700000000     0.426540000000     0.402586   
C13      C      0.420690000000     0.424960000000     0.416730000000     0.400791   
C14      C      0.423230000000     0.621390000000     0.620450000000     0.410732   
C15      C      0.425220000000     0.626610000000     0.419690000000     0.401545   
C16      C      0.419210000000     0.424670000000     0.617750000000     0.411168   
C17      C      0.153760000000     0.227150000000     0.141280000000    -0.163175   
C18      C      0.369590000000     0.345030000000     0.402160000000     0.0749046  
C19      C      0.371890000000     0.414470000000     0.334980000000     0.0733628  
C20      C      0.335650000000     0.314110000000     0.370300000000    -0.0906637  
C21      C      0.287620000000     0.244680000000     0.281080000000    -0.0377802  
C22      C      0.252440000000     0.214410000000     0.249990000000    -0.0294642  
C23      C      0.282570000000     0.301730000000     0.285580000000    -0.00354435 
C24      C      0.337900000000     0.384630000000     0.302140000000    -0.0907013  
C25      C      0.211330000000     0.240430000000     0.222700000000    -0.0179534  
C26      C      0.154420000000     0.158130000000     0.210690000000    -0.110442   
C27      C      0.206580000000     0.297550000000     0.226790000000    -0.028782   
C28      C      0.117140000000     0.129040000000     0.181460000000     0.081404   
C29      C      0.116530000000     0.197010000000     0.112520000000     0.241401   
C30      C      0.241780000000     0.327830000000     0.257840000000    -0.0372128  
C31      C      0.319270000000     0.333810000000     0.319650000000     0.0493305  
C32      C      0.172900000000     0.208070000000     0.191020000000     0.0805104  
C33      C      0.316060000000     0.328340000000     0.657090000000    -0.164207   
C34      C      0.101280000000     0.200200000000     0.909350000000     0.0696506  
C35      C      0.129160000000     0.118570000000     0.866600000000     0.0710713  
C36      C      0.138070000000     0.230360000000     0.880450000000    -0.0893988  
C37      C      0.230890000000     0.286050000000     0.831300000000    -0.0376394  
C38      C      0.264900000000     0.317230000000     0.799680000000    -0.0286309  
C39      C      0.210980000000     0.236060000000     0.811970000000    -0.00272509 
C40      C      0.167670000000     0.147170000000     0.838530000000    -0.0902106  
C41      C      0.281580000000     0.298630000000     0.748400000000    -0.0173783  
C42      C      0.353000000000     0.368740000000     0.737220000000    -0.109674   
C43      C      0.263130000000     0.247710000000     0.729980000000    -0.0284275  
C44      C      0.385530000000     0.400070000000     0.704170000000     0.0822567  
C45      C      0.350560000000     0.358490000000     0.625030000000     0.243493   
C46      C      0.227740000000     0.217480000000     0.760710000000    -0.0376103  
C47      C      0.172130000000     0.204130000000     0.844300000000     0.0473258  
C48      C      0.317380000000     0.332210000000     0.713970000000     0.0803554  
C49      C      0.163000000000     0.831250000000     0.149400000000    -0.164017   
C50      C      0.376570000000     0.708700000000     0.408310000000     0.0729593  
C51      C      0.376690000000     0.641870000000     0.338500000000     0.0735039  
C52      C      0.343150000000     0.741740000000     0.378000000000    -0.0911602  
C53      C      0.247640000000     0.785250000000     0.319710000000    -0.0378151  
C54      C      0.212490000000     0.816030000000     0.289100000000    -0.028814   
C55      C      0.289580000000     0.758630000000     0.294440000000    -0.00352753 
C56      C      0.343380000000     0.673990000000     0.307060000000    -0.0906024  
C57      C      0.218470000000     0.820970000000     0.232480000000    -0.0183421  
C58      C      0.158270000000     0.900570000000     0.218320000000    -0.110745   
C59      C      0.260900000000     0.795050000000     0.207360000000    -0.0287554  
C60      C      0.120490000000     0.927500000000     0.187630000000     0.0812504  
C61      C      0.125300000000     0.859150000000     0.119270000000     0.241943   
C62      C      0.295990000000     0.764190000000     0.237960000000    -0.0379576  
C63      C      0.325990000000     0.724500000000     0.326790000000     0.049027   
C64      C      0.179680000000     0.851540000000     0.199580000000     0.0809432  
C65      C      0.652050000000     0.320940000000     0.390040000000    -0.165168   
C66      C      0.867990000000     0.201490000000     0.131580000000     0.073943   
C67      C      0.872420000000     0.134730000000     0.201320000000     0.0732624  
C68      C      0.833460000000     0.232630000000     0.162410000000    -0.0910058  
C69      C      0.783540000000     0.303790000000     0.248950000000    -0.0376862  
C70      C      0.747550000000     0.333980000000     0.279040000000    -0.0285956  
C71      C      0.780180000000     0.246470000000     0.246540000000    -0.00351292 
C72      C      0.837860000000     0.164860000000     0.233200000000    -0.0911807  
C73      C      0.707410000000     0.307510000000     0.307430000000    -0.0184199  
C74      C      0.648210000000     0.388130000000     0.318980000000    -0.109913   
C75      C      0.704140000000     0.250190000000     0.305090000000    -0.0286454  
C76      C      0.611170000000     0.416800000000     0.349010000000     0.0788728  
C77      C      0.614700000000     0.350270000000     0.419240000000     0.242944   
C78      C      0.740110000000     0.220030000000     0.275030000000    -0.0378573  
C79      C      0.817810000000     0.214370000000     0.213790000000     0.0494134  
C80      C      0.668930000000     0.339430000000     0.339270000000     0.0812075  
C81      C      0.839690000000     0.806360000000     0.876520000000    -0.164403   
C82      C      0.618900000000     0.690730000000     0.620390000000     0.0724794  
C83      C      0.618780000000     0.621490000000     0.687840000000     0.0729012  
C84      C      0.656120000000     0.720270000000     0.649400000000    -0.0904076  
C85      C      0.754070000000     0.759850000000     0.706210000000    -0.0379297  
C86      C      0.789370000000     0.790350000000     0.736950000000    -0.0292545  
C87      C      0.712800000000     0.732180000000     0.731580000000    -0.0031687  
C88      C      0.655970000000     0.649990000000     0.717870000000    -0.0881435  
C89      C      0.784210000000     0.793850000000     0.793760000000    -0.0183862  
C90      C      0.839370000000     0.877080000000     0.808810000000    -0.110926   
C91      C      0.742920000000     0.766210000000     0.819080000000    -0.028601   
C92      C      0.873710000000     0.907250000000     0.840880000000     0.0822413  
C93      C      0.874360000000     0.837210000000     0.907780000000     0.243205   
C94      C      0.707660000000     0.735760000000     0.788380000000    -0.0375873  
C95      C      0.674780000000     0.700260000000     0.699050000000     0.0484889  
C96      C      0.821670000000     0.826130000000     0.826650000000     0.0814206  
C97      C      0.656770000000     0.384880000000     0.710010000000    -0.163833   
C98      C      0.871190000000     0.126330000000     0.833440000000     0.0725069  
C99      C      0.869280000000     0.197610000000     0.898720000000     0.0729986  
C100     C      0.837330000000     0.155500000000     0.799780000000    -0.0909913  
C101     C      0.740880000000     0.213220000000     0.755270000000    -0.0376631  
C102     C      0.705370000000     0.243830000000     0.724830000000    -0.0293035  
C103     C      0.783150000000     0.238820000000     0.780930000000    -0.00370731 
C104     C      0.835720000000     0.227950000000     0.865940000000    -0.0909903  
C105     C      0.711470000000     0.300700000000     0.719230000000    -0.017649   
C106     C      0.648720000000     0.314950000000     0.642060000000    -0.107741   
C107     C      0.754600000000     0.325950000000     0.743700000000    -0.0288723  
C108     C      0.611080000000     0.346560000000     0.615870000000     0.0815882  
C109     C      0.618840000000     0.415660000000     0.683190000000     0.242966   
C110     C      0.789910000000     0.295420000000     0.774270000000    -0.0375732  
C111     C      0.819290000000     0.207030000000     0.815830000000     0.0490069  
C112     C      0.672070000000     0.333950000000     0.689790000000     0.0805192  
C113     C      0.336180000000     0.663940000000     0.731920000000    -0.163858   
C114     C      0.119630000000     0.922320000000     0.853070000000     0.0708467  
C115     C      0.114520000000     0.849820000000     0.916810000000     0.0679908  
C116     C      0.156850000000     0.893820000000     0.823120000000    -0.0912506  
C117     C      0.208500000000     0.809180000000     0.750910000000    -0.0379849  
C118     C      0.244050000000     0.778770000000     0.720500000000    -0.0292291  
C119     C      0.211660000000     0.810500000000     0.807960000000    -0.00371032 
C120     C      0.151800000000     0.820270000000     0.887890000000    -0.090104   
C121     C      0.283660000000     0.749020000000     0.746400000000    -0.0182831  
C122     C      0.340520000000     0.734980000000     0.664690000000    -0.110905   
C123     C      0.287040000000     0.750680000000     0.803460000000    -0.0289337  
C124     C      0.374610000000     0.702750000000     0.634430000000     0.0827328  
C125     C      0.370240000000     0.632260000000     0.700710000000     0.243181   
C126     C      0.251400000000     0.781010000000     0.833890000000    -0.0378456  
C127     C      0.173200000000     0.842040000000     0.840230000000     0.0478371  
C128     C      0.320770000000     0.715720000000     0.714040000000     0.0813476  
C129     C      0.660360000000     0.651830000000     0.325110000000    -0.164183   
C130     C      0.874910000000     0.911910000000     0.202740000000     0.0728733  
C131     C      0.876520000000     0.841440000000     0.136620000000     0.0736835  
C132     C      0.840550000000     0.881650000000     0.234800000000    -0.0904434  
C133     C      0.789490000000     0.795890000000     0.306980000000    -0.037936   
C134     C      0.753950000000     0.765360000000     0.337460000000    -0.0293147  
C135     C      0.785740000000     0.798000000000     0.249950000000    -0.00321735 
C136     C      0.842240000000     0.810130000000     0.167660000000    -0.0889431  
C137     C      0.713930000000     0.736190000000     0.311580000000    -0.0182718  
C138     C      0.655380000000     0.722900000000     0.392230000000    -0.110533   
C139     C      0.710040000000     0.738610000000     0.254610000000    -0.0287096  
C140     C      0.618380000000     0.692150000000     0.420340000000     0.0814924  
C141     C      0.623550000000     0.621630000000     0.354210000000     0.242395   
C142     C      0.745460000000     0.769140000000     0.224200000000    -0.037596   
C143     C      0.823480000000     0.830230000000     0.217250000000     0.0487091  
C144     C      0.676270000000     0.703210000000     0.343560000000     0.0810091  
Co1      Co     0.986920000000     0.941430000000     0.020680000000     0.839666   
Co2      Co     0.981240000000     0.103630000000     0.017770000000     0.841134   
Co3      Co     0.986760000000     0.023930000000     0.099460000000     0.837255   
Co4      Co     0.986690000000     0.021060000000     0.939740000000     0.832542   
Co5      Co     0.485770000000     0.523810000000     0.438700000000     0.837256   
Co6      Co     0.487050000000     0.521740000000     0.599030000000     0.839962   
Co7      Co     0.486770000000     0.604110000000     0.519980000000     0.842376   
Co8      Co     0.482400000000     0.442320000000     0.517990000000     0.839073   
H1       H      0.385330000000     0.453570000000     0.319710000000     0.032539   
H2       H      0.103780000000     0.090920000000     0.199090000000     0.0299511  
H3       H      0.236340000000     0.371610000000     0.261070000000     0.0405271  
H4       H      0.257730000000     0.170590000000     0.247000000000     0.0360435  
H5       H      0.167750000000     0.141980000000     0.249250000000     0.0578628  
H6       H      0.319090000000     0.223420000000     0.301200000000     0.0390318  
H7       H      0.167930000000     0.265150000000     0.124180000000     0.081129   
H8       H      0.326740000000     0.401140000000     0.262980000000     0.054102   
H9       H      0.321690000000     0.275350000000     0.385780000000     0.0541315  
H10      H      0.174910000000     0.318810000000     0.206990000000     0.0397046  
H11      H      0.380930000000     0.328260000000     0.441210000000     0.0329825  
H12      H      0.123570000000     0.202230000000     0.036080000000     0.153857   
H13      H      0.126900000000     0.074740000000     0.860410000000     0.029723   
H14      H      0.412450000000     0.427530000000     0.724260000000     0.0307371  
H15      H      0.213080000000     0.179890000000     0.743400000000     0.0386777  
H16      H      0.277300000000     0.356370000000     0.815480000000     0.0367039  
H17      H      0.356660000000     0.372870000000     0.780840000000     0.0582905  
H18      H      0.220330000000     0.301590000000     0.870960000000     0.0388635  
H19      H      0.287970000000     0.302560000000     0.636760000000     0.0812644  
H20      H      0.193770000000     0.124250000000     0.812700000000     0.0517644  
H21      H      0.138570000000     0.274240000000     0.885820000000     0.0540421  
H22      H      0.275790000000     0.230720000000     0.691590000000     0.036012   
H23      H      0.075640000000     0.222420000000     0.936450000000     0.0374405  
H24      H      0.369850000000     0.322390000000     0.559930000000     0.158125   
H25      H      0.388810000000     0.602900000000     0.321780000000     0.0329161  
H26      H      0.104890000000     0.965100000000     0.204320000000     0.0294229  
H27      H      0.328380000000     0.744970000000     0.217390000000     0.0400282  
H28      H      0.179840000000     0.834770000000     0.309640000000     0.0372854  
H29      H      0.170670000000     0.918270000000     0.256550000000     0.0573548  
H30      H      0.241200000000     0.781190000000     0.363050000000     0.0394404  
H31      H      0.178400000000     0.793210000000     0.133620000000     0.0817625  
H32      H      0.330590000000     0.658780000000     0.267930000000     0.0543137  
H33      H      0.331200000000     0.780800000000     0.394530000000     0.0531785  
H34      H      0.267160000000     0.798780000000     0.163970000000     0.0365131  
H35      H      0.388770000000     0.723740000000     0.447760000000     0.031278   
H36      H      0.135240000000     0.853840000000     0.043310000000     0.151877   
H37      H      0.886920000000     0.096610000000     0.217910000000     0.0311712  
H38      H      0.595790000000     0.453820000000     0.330950000000     0.0361167  
H39      H      0.735910000000     0.176010000000     0.273270000000     0.0394024  
H40      H      0.751560000000     0.378020000000     0.280660000000     0.0372285  
H41      H      0.659710000000     0.403590000000     0.279500000000     0.0592446  
H42      H      0.814390000000     0.325330000000     0.228060000000     0.0404072  
H43      H      0.667880000000     0.283840000000     0.407490000000     0.0810353  
H44      H      0.827280000000     0.149570000000     0.273020000000     0.053577   
H45      H      0.818410000000     0.270330000000     0.145530000000     0.0543962  
H46      H      0.673180000000     0.228610000000     0.325750000000     0.036786   
H47      H      0.878690000000     0.217100000000     0.091870000000     0.0330386  
H48      H      0.570510000000     0.304930000000     0.461110000000     0.156322   
H49      H      0.605070000000     0.582980000000     0.704220000000     0.0452403  
H50      H      0.885720000000     0.946770000000     0.825360000000     0.0291237  
H51      H      0.675770000000     0.715790000000     0.809110000000     0.0408706  
H52      H      0.821160000000     0.810560000000     0.716290000000     0.0364487  
H53      H      0.826030000000     0.894200000000     0.770680000000     0.0579223  
H54      H      0.759520000000     0.757360000000     0.662610000000     0.0389686  
H55      H      0.827520000000     0.766620000000     0.891240000000     0.0818886  
H56      H      0.669950000000     0.632550000000     0.755610000000     0.0558246  
H57      H      0.669240000000     0.759180000000     0.633530000000     0.0528429  
H58      H      0.737310000000     0.768820000000     0.862650000000     0.0392229  
H59      H      0.605170000000     0.708110000000     0.582470000000     0.0318334  
H60      H      0.922290000000     0.794030000000     0.947310000000     0.157933   
H61      H      0.880750000000     0.215430000000     0.937260000000     0.032529   
H62      H      0.594090000000     0.329770000000     0.579200000000     0.0417402  
H63      H      0.822630000000     0.316180000000     0.792690000000     0.0403772  
H64      H      0.672290000000     0.223140000000     0.707090000000     0.0367259  
H65      H      0.659700000000     0.275980000000     0.624620000000     0.0596866  
H66      H      0.734340000000     0.169750000000     0.760070000000     0.039448   
H67      H      0.673270000000     0.400660000000     0.747380000000     0.0811054  
H68      H      0.822140000000     0.267300000000     0.880270000000     0.0542397  
H69      H      0.825870000000     0.138020000000     0.761140000000     0.0534765  
H70      H      0.761110000000     0.369460000000     0.739300000000     0.0390607  
H71      H      0.884330000000     0.086680000000     0.819330000000     0.0311478  
H72      H      0.577070000000     0.457220000000     0.731230000000     0.15849    
H73      H      0.098200000000     0.830910000000     0.952800000000     0.0374478  
H74      H      0.388840000000     0.719830000000     0.596570000000     0.029047   
H75      H      0.255320000000     0.781840000000     0.877740000000     0.0392099  
H76      H      0.239800000000     0.777680000000     0.676700000000     0.0364774  
H77      H      0.330170000000     0.775120000000     0.649610000000     0.0579869  
H78      H      0.177860000000     0.830770000000     0.729750000000     0.0395227  
H79      H      0.321080000000     0.647250000000     0.769540000000     0.0817813  
H80      H      0.162860000000     0.780050000000     0.902190000000     0.0542016  
H81      H      0.172930000000     0.912500000000     0.786920000000     0.0525805  
H82      H      0.317570000000     0.728940000000     0.824650000000     0.0389251  
H83      H      0.108180000000     0.962280000000     0.838250000000     0.0316528  
H84      H      0.356790000000     0.556280000000     0.705500000000     0.156942   
H85      H      0.889800000000     0.824240000000     0.098430000000     0.040927   
H86      H      0.602740000000     0.709810000000     0.457320000000     0.0297108  
H87      H      0.740790000000     0.770730000000     0.180460000000     0.0408898  
H88      H      0.758350000000     0.763830000000     0.381230000000     0.0361156  
H89      H      0.666480000000     0.762580000000     0.407950000000     0.0576756  
H90      H      0.820420000000     0.817100000000     0.328060000000     0.0392783  
H91      H      0.676720000000     0.634580000000     0.288320000000     0.0815546  
H92      H      0.830790000000     0.770200000000     0.152900000000     0.0558777  
H93      H      0.826650000000     0.899060000000     0.272590000000     0.0530278  
H94      H      0.679100000000     0.717470000000     0.233470000000     0.0396182  
H95      H      0.886640000000     0.951740000000     0.217690000000     0.0313168  
H96      H      0.635070000000     0.545350000000     0.351480000000     0.152593   
N1       N      0.097500000000     0.148370000000     0.133090000000    -0.21637    
N2       N      0.387570000000     0.394920000000     0.384720000000    -0.189696   
N3       N      0.385150000000     0.394490000000     0.648590000000    -0.218774   
N4       N      0.096210000000     0.144890000000     0.901750000000    -0.189306   
N5       N      0.103220000000     0.906760000000     0.138860000000    -0.216408   
N6       N      0.393060000000     0.658960000000     0.388880000000    -0.190154   
N7       N      0.594220000000     0.398320000000     0.398780000000    -0.216268   
N8       N      0.887220000000     0.152760000000     0.150740000000    -0.190534   
N9       N      0.890990000000     0.888010000000     0.890260000000    -0.217564   
N10      N      0.599900000000     0.641970000000     0.639730000000    -0.187834   
N11      N      0.595970000000     0.396600000000     0.635960000000    -0.215224   
N12      N      0.887030000000     0.147180000000     0.882620000000    -0.190095   
N13      N      0.389620000000     0.651720000000     0.651950000000    -0.21778    
N14      N      0.098340000000     0.900400000000     0.899440000000    -0.188555   
N15      N      0.601570000000     0.642320000000     0.401200000000    -0.216429   
N16      N      0.892510000000     0.892160000000     0.153780000000    -0.189209   
O1       O      0.940460000000     0.904340000000     0.076110000000    -0.35754    
O2       O      0.933340000000     0.137510000000     0.961710000000    -0.362935   
O3       O      0.938280000000     0.076990000000     0.137580000000    -0.363909   
O4       O      0.938960000000     0.966330000000     0.902840000000    -0.364634   
O5       O      0.933470000000     0.139680000000     0.072270000000    -0.365869   
O6       O      0.939370000000     0.903050000000     0.967460000000    -0.352339   
O7       O      0.937710000000     0.071830000000     0.899360000000    -0.364212   
O8       O      0.939880000000     0.970110000000     0.138520000000    -0.363981   
O9       O      0.042220000000     0.908490000000     0.971590000000    -0.358491   
O10      O      0.038420000000     0.137680000000     0.063510000000    -0.353772   
O11      O      0.045310000000     0.977860000000     0.130480000000    -0.367249   
O12      O      0.046890000000     0.067760000000     0.913520000000    -0.367372   
O13      O      0.033820000000     0.139100000000     0.967820000000    -0.358452   
O14      O      0.045450000000     0.912700000000     0.067710000000    -0.354816   
O15      O      0.044050000000     0.973940000000     0.908870000000    -0.363399   
O16      O      0.043520000000     0.073860000000     0.127420000000    -0.369459   
O17      O      0.963250000000     0.021740000000     0.019630000000    -0.589701   
O18      O      0.544340000000     0.570510000000     0.409170000000    -0.35503    
O19      O      0.543240000000     0.472030000000     0.628040000000    -0.356168   
O20      O      0.543770000000     0.634840000000     0.567740000000    -0.366036   
O21      O      0.538920000000     0.409440000000     0.471330000000    -0.357195   
O22      O      0.544130000000     0.569410000000     0.630520000000    -0.357841   
O23      O      0.540230000000     0.472830000000     0.406820000000    -0.362429   
O24      O      0.538070000000     0.407130000000     0.565300000000    -0.360828   
O25      O      0.544360000000     0.634990000000     0.472650000000    -0.36697    
O26      O      0.437150000000     0.471370000000     0.399960000000    -0.361859   
O27      O      0.438790000000     0.574670000000     0.636980000000    -0.354277   
O28      O      0.440130000000     0.643300000000     0.466440000000    -0.3658     
O29      O      0.428820000000     0.410330000000     0.568860000000    -0.360532   
O30      O      0.441640000000     0.466480000000     0.638470000000    -0.36157    
O31      O      0.439820000000     0.580050000000     0.401480000000    -0.361566   
O32      O      0.434830000000     0.406230000000     0.463000000000    -0.359995   
O33      O      0.438690000000     0.640250000000     0.574660000000    -0.367564   
O34      O      0.463500000000     0.523830000000     0.519100000000    -0.589722   
O35      O      0.099660000000     0.217700000000     0.063710000000    -0.286683   
O36      O      0.346630000000     0.353270000000     0.569550000000    -0.292863   
O37      O      0.111110000000     0.837260000000     0.070070000000    -0.286454   
O38      O      0.599960000000     0.329870000000     0.468900000000    -0.292287   
O39      O      0.890640000000     0.815310000000     0.956290000000    -0.28939    
O40      O      0.605690000000     0.465250000000     0.705450000000    -0.29074    
O41      O      0.383380000000     0.581550000000     0.720340000000    -0.288122   
O42      O      0.610270000000     0.571110000000     0.334290000000    -0.287296   


