data_structure

_audit_creation_method RASPA-1.0
_audit_creation_date 2023-5-19
_audit_author_name 'Poobodin Mano'

_cell_length_a    24.2543
_cell_length_b    25.4946
_cell_length_c    25.3095
_cell_angle_alpha 90
_cell_angle_beta  90
_cell_angle_gamma 90
_cell_volume      15650.2

_symmetry_cell_setting          triclinic
_symmetry_space_group_name_Hall 'P 1'
_symmetry_space_group_name_H-M  'P 1'
_symmetry_Int_Tables_number     1

_symmetry_equiv_pos_as_xyz 'x,y,z'

loop_
_atom_site_label
_atom_site_type_symbol
_atom_site_fract_x
_atom_site_fract_y
_atom_site_fract_z
_atom_site_charge
C1       C      0.965130000000     0.894580000000     0.101730000000     0.402992   
C2       C      0.940750000000     0.092400000000     0.910540000000     0.406754   
C3       C      0.952350000000     0.094640000000     0.103310000000     0.401981   
C4       C      0.956100000000     0.901210000000     0.903380000000     0.40398    
C5       C      0.091170000000     0.910650000000     0.902920000000     0.404442   
C6       C      0.095030000000     0.090240000000     0.092470000000     0.395886   
C7       C      0.104770000000     0.914210000000     0.089330000000     0.399161   
C8       C      0.081160000000     0.100070000000     0.906850000000     0.399881   
C9       C      0.598990000000     0.587750000000     0.409880000000     0.395955   
C10      C      0.587450000000     0.406550000000     0.597760000000     0.402347   
C11      C      0.604630000000     0.587520000000     0.587970000000     0.396264   
C12      C      0.587010000000     0.402400000000     0.411210000000     0.399245   
C13      C      0.445780000000     0.405740000000     0.407760000000     0.403724   
C14      C      0.459270000000     0.603290000000     0.599470000000     0.403391   
C15      C      0.455670000000     0.598710000000     0.403810000000     0.401335   
C16      C      0.449740000000     0.408690000000     0.603930000000     0.401734   
C17      C      0.351740000000     0.299910000000     0.364140000000    -0.0569566  
C18      C      0.154890000000     0.164240000000     0.099000000000     0.0730236  
C19      C      0.150230000000     0.102890000000     0.169280000000     0.0738548  
C20      C      0.191490000000     0.195420000000     0.127900000000    -0.0912447  
C21      C      0.289960000000     0.238230000000     0.191480000000    -0.0330298  
C22      C      0.323200000000     0.270160000000     0.223310000000    -0.0358998  
C23      C      0.242000000000     0.215040000000     0.212130000000    -0.00622565 
C24      C      0.186240000000     0.133380000000     0.199390000000    -0.091299   
C25      C      0.308880000000     0.279910000000     0.276300000000     0.000425575
C26      C      0.369970000000     0.358220000000     0.291900000000    -0.0819012  
C27      C      0.260190000000     0.257460000000     0.296380000000    -0.0360076  
C28      C      0.402170000000     0.389010000000     0.325560000000     0.0707715  
C29      C      0.382580000000     0.332350000000     0.397800000000     0.0310194  
C30      C      0.227390000000     0.225220000000     0.264810000000    -0.0325689  
C31      C      0.206710000000     0.180600000000     0.179100000000     0.0508741  
C32      C      0.344530000000     0.312850000000     0.310930000000     0.0398599  
C33      C      0.379210000000     0.319640000000     0.454910000000     0.295872   
C34      C      0.156540000000     0.157720000000     0.794130000000    -0.0576139  
C35      C      0.400660000000     0.397340000000     0.685000000000     0.0745171  
C36      C      0.394720000000     0.332650000000     0.617950000000     0.078265   
C37      C      0.364930000000     0.368370000000     0.717150000000    -0.0913297  
C38      C      0.315780000000     0.275650000000     0.782530000000    -0.0331846  
C39      C      0.279010000000     0.244640000000     0.811570000000    -0.0354253  
C40      C      0.303000000000     0.290760000000     0.730640000000    -0.00603816 
C41      C      0.358120000000     0.303350000000     0.648500000000    -0.0910144  
C42      C      0.228290000000     0.228860000000     0.789560000000     0.000496215
C43      C      0.182630000000     0.201180000000     0.874430000000    -0.0824242  
C44      C      0.215200000000     0.245490000000     0.737990000000    -0.0352213  
C45      C      0.145310000000     0.169730000000     0.901930000000     0.0701911  
C46      C      0.117240000000     0.128220000000     0.822110000000     0.0346009  
C47      C      0.252350000000     0.275560000000     0.708740000000    -0.032541   
C48      C      0.342740000000     0.321190000000     0.698580000000     0.0519467  
C49      C      0.189210000000     0.195090000000     0.819910000000     0.0403112  
C50      C      0.075920000000     0.099410000000     0.789600000000     0.290269   
C51      C      0.212480000000     0.818340000000     0.125990000000    -0.0565131  
C52      C      0.400970000000     0.675680000000     0.393480000000     0.073806   
C53      C      0.410080000000     0.616010000000     0.322130000000     0.0740169  
C54      C      0.367040000000     0.708010000000     0.363050000000    -0.0918089  
C55      C      0.269740000000     0.748500000000     0.297300000000    -0.032888   
C56      C      0.236380000000     0.780520000000     0.265830000000    -0.0356867  
C57      C      0.319790000000     0.728790000000     0.277670000000    -0.00635989 
C58      C      0.376950000000     0.647890000000     0.290350000000    -0.0914868  
C59      C      0.252630000000     0.794070000000     0.214220000000     0.000587425
C60      C      0.186840000000     0.869270000000     0.201730000000    -0.0820088  
C61      C      0.303250000000     0.774840000000     0.195040000000    -0.0360438  
C62      C      0.152090000000     0.899070000000     0.169670000000     0.070903   
C63      C      0.178920000000     0.850160000000     0.093930000000     0.0303016  
C64      C      0.336210000000     0.742280000000     0.226260000000    -0.0326016  
C65      C      0.354950000000     0.694410000000     0.310790000000     0.0511919  
C66      C      0.216610000000     0.827480000000     0.180330000000     0.039885   
C67      C      0.186310000000     0.844100000000     0.035910000000     0.294893   
C68      C      0.672200000000     0.289510000000     0.368790000000    -0.0578757  
C69      C      0.904800000000     0.174630000000     0.120320000000     0.0741295  
C70      C      0.898870000000     0.104660000000     0.181770000000     0.073679   
C71      C      0.870670000000     0.205610000000     0.151900000000    -0.0917373  
C72      C      0.823400000000     0.270650000000     0.242420000000    -0.0331027  
C73      C      0.787290000000     0.300910000000     0.272870000000    -0.0363965  
C74      C      0.812070000000     0.217490000000     0.232450000000    -0.00653363 
C75      C      0.864180000000     0.134450000000     0.214080000000    -0.0915937  
C76      C      0.738850000000     0.278750000000     0.293740000000     0.000206114
C77      C      0.687750000000     0.362710000000     0.311100000000    -0.0824353  
C78      C      0.727620000000     0.225520000000     0.283610000000    -0.0363573  
C79      C      0.649460000000     0.391700000000     0.340070000000     0.0686605  
C80      C      0.632390000000     0.318680000000     0.396340000000     0.0280104  
C81      C      0.763920000000     0.195220000000     0.253560000000    -0.0325915  
C82      C      0.849700000000     0.185550000000     0.199260000000     0.0510394  
C83      C      0.699710000000     0.311010000000     0.325360000000     0.0388796  
C84      C      0.599210000000     0.289020000000     0.435610000000     0.292335   
C85      C      0.710230000000     0.623780000000     0.686630000000    -0.057261   
C86      C      0.906550000000     0.887370000000     0.823390000000     0.0819985  
C87      C      0.908480000000     0.820580000000     0.888540000000     0.0762529  
C88      C      0.872870000000     0.856660000000     0.791170000000    -0.0907802  
C89      C      0.773600000000     0.794300000000     0.750640000000    -0.0328343  
C90      C      0.740030000000     0.763080000000     0.718590000000    -0.0356534  
C91      C      0.821510000000     0.773490000000     0.773690000000    -0.00573102 
C92      C      0.875490000000     0.788430000000     0.856850000000    -0.0897145  
C93      C      0.753990000000     0.710470000000     0.708330000000     0.000286651
C94      C      0.690830000000     0.697320000000     0.630610000000    -0.0824052  
C95      C      0.802510000000     0.690030000000     0.730960000000    -0.0358617  
C96      C      0.655610000000     0.665670000000     0.600890000000     0.0688967  
C97      C      0.676350000000     0.591980000000     0.654900000000     0.0260506  
C98      C      0.835610000000     0.721060000000     0.763600000000    -0.0325216  
C99      C      0.856990000000     0.806590000000     0.807740000000     0.0526391  
C100     C      0.717670000000     0.676900000000     0.674900000000     0.0387519  
C101     C      0.680500000000     0.534530000000     0.664070000000     0.294024   
C102     C      0.847960000000     0.136380000000     0.803520000000    -0.0574739  
C103     C      0.635320000000     0.391840000000     0.678310000000     0.0787666  
C104     C      0.644020000000     0.330710000000     0.608290000000     0.0752925  
C105     C      0.670900000000     0.362330000000     0.709660000000    -0.0925636  
C106     C      0.721840000000     0.278990000000     0.778370000000    -0.0323054  
C107     C      0.756950000000     0.248810000000     0.809780000000    -0.0366178  
C108     C      0.730920000000     0.283470000000     0.723600000000    -0.00617462 
C109     C      0.679410000000     0.299870000000     0.638830000000    -0.0889587  
C110     C      0.801470000000     0.221890000000     0.787060000000     0.000301827
C111     C      0.857520000000     0.204550000000     0.868250000000    -0.0827452  
C112     C      0.810790000000     0.226330000000     0.732480000000    -0.0363577  
C113     C      0.890530000000     0.171210000000     0.898400000000     0.0721416  
C114     C      0.879360000000     0.102730000000     0.835390000000     0.0333981  
C115     C      0.776080000000     0.257010000000     0.701120000000    -0.0316003  
C116     C      0.693440000000     0.315620000000     0.690210000000     0.0524022  
C117     C      0.836810000000     0.187520000000     0.819800000000     0.0408095  
C118     C      0.880570000000     0.046930000000     0.818820000000     0.296704   
C119     C      0.183310000000     0.872520000000     0.792690000000    -0.0578118  
C120     C      0.409620000000     0.619790000000     0.678950000000     0.0747812  
C121     C      0.410310000000     0.683510000000     0.610690000000     0.0743203  
C122     C      0.375240000000     0.651420000000     0.709590000000    -0.0915809  
C123     C      0.326210000000     0.739040000000     0.776120000000    -0.0325332  
C124     C      0.289230000000     0.769280000000     0.805490000000    -0.0357753  
C125     C      0.319310000000     0.733200000000     0.721290000000    -0.00633848 
C126     C      0.375850000000     0.716050000000     0.640240000000    -0.0919358  
C127     C      0.244560000000     0.794290000000     0.780650000000     0.000351812
C128     C      0.184800000000     0.806480000000     0.860160000000    -0.0830263  
C129     C      0.237870000000     0.788660000000     0.725780000000    -0.036004   
C130     C      0.145990000000     0.835240000000     0.888520000000     0.0730486  
C131     C      0.143100000000     0.900260000000     0.821230000000     0.0289827  
C132     C      0.274860000000     0.758510000000     0.696430000000    -0.0321701  
C133     C      0.357600000000     0.700010000000     0.690160000000     0.0516644  
C134     C      0.204380000000     0.825260000000     0.811960000000     0.0407765  
C135     C      0.116980000000     0.944950000000     0.793280000000     0.295302   
C136     C      0.890270000000     0.777350000000     0.149990000000    -0.0574255  
C137     C      0.656190000000     0.662810000000     0.398360000000     0.0736702  
C138     C      0.659160000000     0.594000000000     0.335410000000     0.0727067  
C139     C      0.693620000000     0.692100000000     0.368650000000    -0.0913983  
C140     C      0.741760000000     0.757350000000     0.279350000000    -0.0330735  
C141     C      0.777690000000     0.787600000000     0.248800000000    -0.0362372  
C142     C      0.752380000000     0.703890000000     0.288220000000    -0.00632863 
C143     C      0.697140000000     0.622130000000     0.304930000000    -0.0910523  
C144     C      0.825430000000     0.765250000000     0.226660000000     0.000329859
C145     C      0.875490000000     0.849670000000     0.208930000000    -0.0824576  
C146     C      0.835960000000     0.711650000000     0.235540000000    -0.0363151  
C147     C      0.910780000000     0.880130000000     0.178120000000     0.0689649  
C148     C      0.927160000000     0.808160000000     0.120420000000     0.0276606  
C149     C      0.799690000000     0.681270000000     0.265750000000    -0.0327164  
C150     C      0.714170000000     0.672120000000     0.321090000000     0.0506343  
C151     C      0.863980000000     0.797880000000     0.194620000000     0.0387432  
C152     C      0.958980000000     0.780280000000     0.078890000000     0.292169   
Co1      Co     0.022700000000     0.921960000000     0.000680000000     0.843583   
Co2      Co     0.015250000000     0.077030000000     0.003660000000     0.837772   
Co3      Co     0.019160000000     0.998280000000     0.080940000000     0.841059   
Co4      Co     0.016660000000     0.001360000000     0.924250000000     0.846885   
Co5      Co     0.518520000000     0.499520000000     0.423930000000     0.833183   
Co6      Co     0.519190000000     0.502610000000     0.580860000000     0.836466   
Co7      Co     0.521680000000     0.578440000000     0.501120000000     0.846483   
Co8      Co     0.514720000000     0.423660000000     0.504300000000     0.851174   
H1       H      0.134940000000     0.066950000000     0.186880000000     0.0333859  
H2       H      0.421830000000     0.423120000000     0.308230000000     0.0346893  
H3       H      0.190060000000     0.208790000000     0.281490000000     0.0406636  
H4       H      0.360620000000     0.286400000000     0.206660000000     0.0411221  
H5       H      0.364780000000     0.370330000000     0.251190000000     0.0529659  
H6       H      0.302330000000     0.230840000000     0.151040000000     0.039543   
H7       H      0.331930000000     0.265210000000     0.380060000000     0.0589253  
H8       H      0.197750000000     0.120150000000     0.238550000000     0.055696   
H9       H      0.206360000000     0.231740000000     0.110840000000     0.0543829  
H10      H      0.246960000000     0.265160000000     0.336500000000     0.0421297  
H11      H      0.143280000000     0.177730000000     0.059930000000     0.0317362  
H12      H      0.383070000000     0.259780000000     0.507900000000     0.180396   
H13      H      0.406140000000     0.316910000000     0.579810000000     0.0402951  
H14      H      0.143220000000     0.175040000000     0.944420000000     0.0327294  
H15      H      0.241300000000     0.287370000000     0.669000000000     0.0428095  
H16      H      0.290920000000     0.232220000000     0.850850000000     0.0405899  
H17      H      0.205940000000     0.230360000000     0.896050000000     0.0521818  
H18      H      0.354830000000     0.286680000000     0.800100000000     0.0403548  
H19      H      0.160030000000     0.152880000000     0.751730000000     0.0632447  
H20      H      0.342280000000     0.266640000000     0.633170000000     0.05691    
H21      H      0.353810000000     0.383320000000     0.755770000000     0.0555503  
H22      H      0.176000000000     0.235670000000     0.720090000000     0.0429165  
H23      H      0.416330000000     0.434100000000     0.700440000000     0.0325431  
H24      H      0.065050000000     0.059390000000     0.720950000000     0.183077   
H25      H      0.426130000000     0.580240000000     0.304790000000     0.0322582  
H26      H      0.128450000000     0.929630000000     0.189050000000     0.0355024  
H27      H      0.375020000000     0.728260000000     0.210460000000     0.0404387  
H28      H      0.197360000000     0.793860000000     0.281700000000     0.0415968  
H29      H      0.189930000000     0.878930000000     0.243290000000     0.0530168  
H30      H      0.255890000000     0.738320000000     0.336680000000     0.0401848  
H31      H      0.236450000000     0.787120000000     0.108210000000     0.0610277  
H32      H      0.368120000000     0.635860000000     0.250180000000     0.0557873  
H33      H      0.351090000000     0.743900000000     0.380130000000     0.0550586  
H34      H      0.317880000000     0.785340000000     0.156040000000     0.0418643  
H35      H      0.409520000000     0.687950000000     0.433680000000     0.0318565  
H36      H      0.206840000000     0.791410000000     0.978790000000     0.178232   
H37      H      0.909080000000     0.065320000000     0.194780000000     0.0310629  
H38      H      0.642650000000     0.431920000000     0.327710000000     0.0334515  
H39      H      0.753650000000     0.154590000000     0.245830000000     0.0400802  
H40      H      0.797630000000     0.341540000000     0.280450000000     0.0403845  
H41      H      0.707330000000     0.380730000000     0.277200000000     0.0521879  
H42      H      0.860520000000     0.288730000000     0.227100000000     0.0396969  
H43      H      0.680320000000     0.249270000000     0.380300000000     0.0578228  
H44      H      0.849160000000     0.117660000000     0.250670000000     0.0550666  
H45      H      0.859970000000     0.244740000000     0.138750000000     0.0549469  
H46      H      0.690160000000     0.207370000000     0.298010000000     0.0424041  
H47      H      0.919720000000     0.191730000000     0.083790000000     0.0326491  
H48      H      0.604160000000     0.238760000000     0.497690000000     0.184042   
H49      H      0.921460000000     0.805270000000     0.926530000000     0.0383259  
H50      H      0.634290000000     0.684350000000     0.568250000000     0.0346593  
H51      H      0.872790000000     0.704300000000     0.780260000000     0.0412245  
H52      H      0.702620000000     0.779990000000     0.702630000000     0.0412532  
H53      H      0.696560000000     0.737820000000     0.618930000000     0.0525845  
H54      H      0.761570000000     0.834540000000     0.758160000000     0.0420224  
H55      H      0.731880000000     0.606640000000     0.719860000000     0.0602137  
H56      H      0.863850000000     0.749900000000     0.871070000000     0.0576361  
H57      H      0.860070000000     0.871750000000     0.753070000000     0.0559953  
H58      H      0.815420000000     0.650150000000     0.723060000000     0.0420989  
H59      H      0.918780000000     0.925400000000     0.808450000000     0.0409001  
H60      H      0.695170000000     0.479630000000     0.720730000000     0.178978   
H61      H      0.634370000000     0.317210000000     0.568750000000     0.0416175  
H62      H      0.907120000000     0.187140000000     0.934810000000     0.0348358  
H63      H      0.784990000000     0.260320000000     0.659330000000     0.0415267  
H64      H      0.748390000000     0.245380000000     0.851650000000     0.0413878  
H65      H      0.849300000000     0.243920000000     0.882310000000     0.0540187  
H66      H      0.686930000000     0.297960000000     0.796960000000     0.0394113  
H67      H      0.829640000000     0.121820000000     0.767250000000     0.0593559  
H68      H      0.695010000000     0.263580000000     0.622390000000     0.05733    
H69      H      0.680890000000     0.376480000000     0.748850000000     0.0533059  
H70      H      0.845180000000     0.206260000000     0.714100000000     0.045713   
H71      H      0.617910000000     0.427040000000     0.695550000000     0.0382541  
H72      H      0.890450000000     0.998790000000     0.755460000000     0.17907    
H73      H      0.423220000000     0.697420000000     0.572140000000     0.0316826  
H74      H      0.132030000000     0.818460000000     0.925480000000     0.0438686  
H75      H      0.267890000000     0.754040000000     0.654400000000     0.0399903  
H76      H      0.295830000000     0.773390000000     0.847610000000     0.0418082  
H77      H      0.198730000000     0.769180000000     0.875730000000     0.0520219  
H78      H      0.360480000000     0.720550000000     0.796280000000     0.0402913  
H79      H      0.196950000000     0.887110000000     0.754600000000     0.0579794  
H80      H      0.363750000000     0.753670000000     0.624070000000     0.0553067  
H81      H      0.361620000000     0.637280000000     0.747770000000     0.0554243  
H82      H      0.203300000000     0.806600000000     0.705600000000     0.0424836  
H83      H      0.421770000000     0.582220000000     0.695330000000     0.0331404  
H84      H      0.043550000000     0.974720000000     0.768630000000     0.191068   
H85      H      0.646360000000     0.555830000000     0.321050000000     0.0313572  
H86      H      0.916750000000     0.920450000000     0.190510000000     0.0334587  
H87      H      0.809250000000     0.640290000000     0.272400000000     0.0397752  
H88      H      0.767630000000     0.828430000000     0.242030000000     0.0406637  
H89      H      0.857290000000     0.866910000000     0.243940000000     0.0524545  
H90      H      0.705170000000     0.775700000000     0.295490000000     0.0399415  
H91      H      0.882960000000     0.736950000000     0.138590000000     0.0578854  
H92      H      0.711990000000     0.605340000000     0.268280000000     0.0546653  
H93      H      0.706440000000     0.730240000000     0.382990000000     0.054877   
H94      H      0.872750000000     0.693240000000     0.219950000000     0.0419676  
H95      H      0.641190000000     0.680140000000     0.434750000000     0.0334271  
H96      H      0.952380000000     0.729920000000     0.017010000000     0.184222   
N1       N      0.409740000000     0.376040000000     0.377900000000    -0.17319    
N2       N      0.133650000000     0.118740000000     0.119890000000    -0.18919    
N3       N      0.113890000000     0.132470000000     0.876650000000    -0.174415   
N4       N      0.415190000000     0.379750000000     0.635560000000    -0.188472   
N5       N      0.145960000000     0.888490000000     0.116620000000    -0.172445   
N6       N      0.422330000000     0.629940000000     0.373250000000    -0.190352   
N7       N      0.622330000000     0.370640000000     0.382870000000    -0.174237   
N8       N      0.918830000000     0.124480000000     0.135060000000    -0.190589   
N9       N      0.646190000000     0.614010000000     0.613960000000    -0.173374   
N10      N      0.923770000000     0.869820000000     0.872000000000    -0.187265   
N11      N      0.903010000000     0.121150000000     0.881810000000    -0.173129   
N12      N      0.622370000000     0.376540000000     0.627820000000    -0.186894   
N13      N      0.126300000000     0.882640000000     0.870590000000    -0.171799   
N14      N      0.426710000000     0.635500000000     0.629680000000    -0.190993   
N15      N      0.935350000000     0.860580000000     0.133220000000    -0.17466    
N16      N      0.638290000000     0.614470000000     0.381500000000    -0.189128   
O1       O      0.979260000000     0.880860000000     0.055120000000    -0.350403   
O2       O      0.957300000000     0.109270000000     0.955490000000    -0.360811   
O3       O      0.967160000000     0.048770000000     0.118300000000    -0.365442   
O4       O      0.969910000000     0.946840000000     0.887010000000    -0.346171   
O5       O      0.968710000000     0.113180000000     0.059060000000    -0.363142   
O6       O      0.972830000000     0.884380000000     0.948270000000    -0.353313   
O7       O      0.961360000000     0.050620000000     0.891020000000    -0.340268   
O8       O      0.976910000000     0.940550000000     0.118790000000    -0.363095   
O9       O      0.074020000000     0.890120000000     0.946080000000    -0.352248   
O10      O      0.076990000000     0.107390000000     0.048220000000    -0.367448   
O11      O      0.082110000000     0.954680000000     0.109920000000    -0.363108   
O12      O      0.065880000000     0.055520000000     0.888780000000    -0.346314   
O13      O      0.066960000000     0.114550000000     0.953310000000    -0.363562   
O14      O      0.086640000000     0.895490000000     0.045730000000    -0.347616   
O15      O      0.075730000000     0.956740000000     0.889950000000    -0.354519   
O16      O      0.076030000000     0.047740000000     0.112320000000    -0.363536   
O17      O      0.995780000000     0.998500000000     0.002920000000    -0.59313    
O18      O      0.580030000000     0.544140000000     0.392480000000    -0.366186   
O19      O      0.570460000000     0.450550000000     0.615760000000    -0.354638   
O20      O      0.584720000000     0.606670000000     0.545300000000    -0.365559   
O21      O      0.570320000000     0.388090000000     0.456810000000    -0.354312   
O22      O      0.583560000000     0.546180000000     0.608330000000    -0.352963   
O23      O      0.571420000000     0.446390000000     0.391780000000    -0.363908   
O24      O      0.571220000000     0.389820000000     0.552710000000    -0.360669   
O25      O      0.580490000000     0.607650000000     0.452740000000    -0.36553    
O26      O      0.464140000000     0.449230000000     0.389480000000    -0.359359   
O27      O      0.473490000000     0.558360000000     0.617340000000    -0.364987   
O28      O      0.469940000000     0.614320000000     0.449840000000    -0.365295   
O29      O      0.463900000000     0.390730000000     0.558680000000    -0.352109   
O30      O      0.467790000000     0.453080000000     0.620000000000    -0.35806    
O31      O      0.472500000000     0.554540000000     0.385890000000    -0.36114    
O32      O      0.462610000000     0.388780000000     0.452440000000    -0.342362   
O33      O      0.474680000000     0.618330000000     0.553590000000    -0.366013   
O34      O      0.495730000000     0.502000000000     0.502500000000    -0.59189    
O35      O      0.386950000000     0.269730000000     0.471210000000    -0.325931   
O36      O      0.366320000000     0.353540000000     0.486750000000    -0.224756   
O37      O      0.091430000000     0.076680000000     0.743750000000    -0.320301   
O38      O      0.027280000000     0.099270000000     0.802240000000    -0.212786   
O39      O      0.197310000000     0.796220000000     0.015550000000    -0.331657   
O40      O      0.186650000000     0.882570000000     0.007090000000    -0.227974   
O41      O      0.624800000000     0.259070000000     0.472150000000    -0.333038   
O42      O      0.548860000000     0.289600000000     0.433330000000    -0.211489   
O43      O      0.687780000000     0.516230000000     0.713690000000    -0.334344   
O44      O      0.681580000000     0.504130000000     0.626740000000    -0.226842   
O45      O      0.891190000000     0.034640000000     0.767910000000    -0.327857   
O46      O      0.868980000000     0.012360000000     0.850380000000    -0.22419    
O47      O      0.061650000000     0.946400000000     0.787230000000    -0.313754   
O48      O      0.145710000000     0.979130000000     0.773580000000    -0.2224     
O49      O      0.932550000000     0.748970000000     0.044080000000    -0.331673   
O50      O      0.009240000000     0.783830000000     0.077500000000    -0.214339   


