data_structure

_audit_creation_method RASPA-1.0
_audit_creation_date 2023-5-19
_audit_author_name 'Poobodin Mano'

_cell_length_a    25.2263
_cell_length_b    24.9083
_cell_length_c    24.9527
_cell_angle_alpha 90
_cell_angle_beta  90
_cell_angle_gamma 90
_cell_volume      15678.9

_symmetry_cell_setting          triclinic
_symmetry_space_group_name_Hall 'P 1'
_symmetry_space_group_name_H-M  'P 1'
_symmetry_Int_Tables_number     1

_symmetry_equiv_pos_as_xyz 'x,y,z'

loop_
_atom_site_label
_atom_site_type_symbol
_atom_site_fract_x
_atom_site_fract_y
_atom_site_fract_z
_atom_site_charge
C1       C      0.915190000000     0.919540000000     0.935510000000     0.393932   
C2       C      0.097680000000     0.107680000000     0.940060000000     0.397623   
C3       C      0.908060000000     0.103670000000     0.939570000000     0.397922   
C4       C      0.099730000000     0.919580000000     0.940290000000     0.395378   
C5       C      0.100770000000     0.915040000000     0.081340000000     0.402574   
C6       C      0.906520000000     0.110250000000     0.076290000000     0.400058   
C7       C      0.906060000000     0.911220000000     0.074570000000     0.402744   
C8       C      0.099160000000     0.113980000000     0.078040000000     0.400602   
C9       C      0.603510000000     0.606050000000     0.442120000000     0.401756   
C10      C      0.404530000000     0.415420000000     0.449530000000     0.399085   
C11      C      0.598010000000     0.412030000000     0.442910000000     0.402141   
C12      C      0.408970000000     0.613390000000     0.448990000000     0.401072   
C13      C      0.417440000000     0.608150000000     0.588470000000     0.3958     
C14      C      0.598940000000     0.415250000000     0.581790000000     0.396756   
C15      C      0.602620000000     0.604680000000     0.582550000000     0.395857   
C16      C      0.413330000000     0.420570000000     0.588650000000     0.395122   
C17      C      0.142880000000     0.226370000000     0.165360000000    -0.104904   
C18      C      0.388390000000     0.334470000000     0.401260000000     0.0712846  
C19      C      0.327430000000     0.406550000000     0.394790000000     0.0717377  
C20      C      0.358370000000     0.304160000000     0.365250000000    -0.0919049  
C21      C      0.305460000000     0.263430000000     0.263920000000    -0.03581    
C22      C      0.275760000000     0.234190000000     0.226690000000    -0.0343721  
C23      C      0.280210000000     0.294240000000     0.303680000000    -0.00590525 
C24      C      0.296420000000     0.377290000000     0.358670000000    -0.0913325  
C25      C      0.220050000000     0.235050000000     0.228240000000    -0.00874479 
C26      C      0.203590000000     0.152730000000     0.172650000000    -0.0947497  
C27      C      0.194790000000     0.265780000000     0.268050000000    -0.0342901  
C28      C      0.173280000000     0.124330000000     0.135460000000     0.0715125  
C29      C      0.113020000000     0.197310000000     0.127820000000     0.10277    
C30      C      0.224490000000     0.295020000000     0.305300000000    -0.0358397  
C31      C      0.311940000000     0.325560000000     0.343100000000     0.0487476  
C32      C      0.188400000000     0.204250000000     0.188350000000     0.0546633  
C33      C      0.143660000000     0.217880000000     0.851440000000    -0.105511   
C34      C      0.403290000000     0.342660000000     0.643120000000     0.0716841  
C35      C      0.337030000000     0.410130000000     0.644140000000     0.0715149  
C36      C      0.373370000000     0.310860000000     0.677880000000    -0.0915205  
C37      C      0.312790000000     0.263860000000     0.772270000000    -0.0359476  
C38      C      0.281000000000     0.231560000000     0.804990000000    -0.0343594  
C39      C      0.290220000000     0.294200000000     0.730550000000    -0.00590921 
C40      C      0.306070000000     0.379320000000     0.678930000000    -0.0914479  
C41      C      0.225940000000     0.228960000000     0.796760000000    -0.0089559  
C42      C      0.206730000000     0.145940000000     0.850600000000    -0.094807   
C43      C      0.203510000000     0.258760000000     0.754630000000    -0.0344107  
C44      C      0.174180000000     0.117250000000     0.885670000000     0.0707997  
C45      C      0.111690000000     0.188730000000     0.886900000000     0.10273    
C46      C      0.235240000000     0.290970000000     0.721940000000    -0.0358693  
C47      C      0.323780000000     0.328690000000     0.695680000000     0.0487935  
C48      C      0.191620000000     0.196900000000     0.833110000000     0.0548108  
C49      C      0.144130000000     0.808480000000     0.175710000000    -0.105234   
C50      C      0.397970000000     0.692780000000     0.396800000000     0.0726647  
C51      C      0.329810000000     0.627280000000     0.398700000000     0.0724966  
C52      C      0.368390000000     0.724400000000     0.361570000000    -0.0917276  
C53      C      0.310820000000     0.765430000000     0.262550000000    -0.0357494  
C54      C      0.280570000000     0.794960000000     0.225990000000    -0.0340915  
C55      C      0.286570000000     0.739830000000     0.306410000000    -0.0058872  
C56      C      0.299170000000     0.657950000000     0.363570000000    -0.0917823  
C57      C      0.225400000000     0.799490000000     0.232470000000    -0.00887558 
C58      C      0.209800000000     0.877850000000     0.171220000000    -0.0950209  
C59      C      0.201320000000     0.774580000000     0.276790000000    -0.0341642  
C60      C      0.178200000000     0.905100000000     0.134250000000     0.0718143  
C61      C      0.112910000000     0.836380000000     0.138570000000     0.103183   
C62      C      0.231530000000     0.745090000000     0.313290000000    -0.0358878  
C63      C      0.318390000000     0.707100000000     0.344410000000     0.0492966  
C64      C      0.192780000000     0.829080000000     0.192620000000     0.0552827  
C65      C      0.639490000000     0.304290000000     0.349040000000    -0.105203   
C66      C      0.894860000000     0.189080000000     0.129090000000     0.0721391  
C67      C      0.826860000000     0.123460000000     0.125780000000     0.0713674  
C68      C      0.864960000000     0.220110000000     0.164540000000    -0.0917171  
C69      C      0.806800000000     0.259010000000     0.263910000000    -0.0358562  
C70      C      0.776400000000     0.288230000000     0.300500000000    -0.0340574  
C71      C      0.782840000000     0.234360000000     0.219390000000    -0.00607777 
C72      C      0.795900000000     0.153510000000     0.161080000000    -0.0926153  
C73      C      0.721370000000     0.293440000000     0.293370000000    -0.00897345 
C74      C      0.706680000000     0.372140000000     0.354040000000    -0.0953997  
C75      C      0.697500000000     0.269190000000     0.248590000000    -0.0341985  
C76      C      0.675390000000     0.400180000000     0.390560000000     0.0722231  
C77      C      0.608520000000     0.333070000000     0.385750000000     0.10325    
C78      C      0.727880000000     0.239970000000     0.212030000000    -0.0359226  
C79      C      0.814920000000     0.202350000000     0.181120000000     0.0492198  
C80      C      0.688830000000     0.323690000000     0.332700000000     0.0554764  
C81      C      0.708380000000     0.645780000000     0.677460000000    -0.105429   
C82      C      0.841710000000     0.912470000000     0.875870000000     0.0714344  
C83      C      0.903790000000     0.841330000000     0.881530000000     0.0715906  
C84      C      0.811280000000     0.883350000000     0.839240000000    -0.0904637  
C85      C      0.737650000000     0.801260000000     0.789960000000    -0.0356255  
C86      C      0.706200000000     0.769790000000     0.756180000000    -0.03414    
C87      C      0.793350000000     0.798800000000     0.787090000000    -0.00543273 
C88      C      0.874040000000     0.810890000000     0.845320000000    -0.0906993  
C89      C      0.729630000000     0.734690000000     0.719040000000    -0.0088864  
C90      C      0.651800000000     0.720640000000     0.658170000000    -0.0952669  
C91      C      0.785200000000     0.732300000000     0.715880000000    -0.0341687  
C92      C      0.621310000000     0.687530000000     0.625240000000     0.0702924  
C93      C      0.676700000000     0.612950000000     0.644920000000     0.103511   
C94      C      0.816680000000     0.764120000000     0.749320000000    -0.0357794  
C95      C      0.826800000000     0.831520000000     0.824000000000     0.0484774  
C96      C      0.696250000000     0.700040000000     0.684260000000     0.0549875  
C97      C      0.795290000000     0.150290000000     0.856530000000    -0.10566    
C98      C      0.680640000000     0.398430000000     0.626370000000     0.0733697  
C99      C      0.607250000000     0.340960000000     0.641500000000     0.0721533  
C100     C      0.711810000000     0.368240000000     0.661290000000    -0.0924227  
C101     C      0.776220000000     0.278830000000     0.711890000000    -0.035692   
C102     C      0.807060000000     0.248220000000     0.746970000000    -0.0342124  
C103     C      0.723110000000     0.290810000000     0.724240000000    -0.00603546 
C104     C      0.637350000000     0.309850000000     0.676790000000    -0.0917412  
C105     C      0.785420000000     0.228860000000     0.795110000000    -0.00887235 
C106     C      0.870210000000     0.208060000000     0.843410000000    -0.0945389  
C107     C      0.732430000000     0.241180000000     0.807610000000    -0.0341911  
C108     C      0.899120000000     0.176540000000     0.879240000000     0.0710817  
C109     C      0.824810000000     0.119270000000     0.892510000000     0.103562   
C110     C      0.701620000000     0.271740000000     0.772550000000    -0.0358374  
C111     C      0.690320000000     0.323350000000     0.687020000000     0.0495607  
C112     C      0.817570000000     0.195250000000     0.831950000000     0.0552489  
C113     C      0.376530000000     0.716210000000     0.682340000000    -0.104532   
C114     C      0.110950000000     0.842540000000     0.884680000000     0.0715682  
C115     C      0.178110000000     0.909000000000     0.887860000000     0.0714128  
C116     C      0.141530000000     0.811460000000     0.849800000000    -0.0911265  
C117     C      0.227760000000     0.739710000000     0.804380000000    -0.0358289  
C118     C      0.259980000000     0.708370000000     0.771180000000    -0.0343619  
C119     C      0.225670000000     0.795810000000     0.798100000000    -0.00573598 
C120     C      0.209750000000     0.878880000000     0.853070000000    -0.0911484  
C121     C      0.291010000000     0.732360000000     0.730990000000    -0.00866319 
C122     C      0.307680000000     0.650340000000     0.675090000000    -0.0945725  
C123     C      0.288840000000     0.788420000000     0.724610000000    -0.0342813  
C124     C      0.339940000000     0.620610000000     0.640720000000     0.0711595  
C125     C      0.408530000000     0.685580000000     0.647990000000     0.102515   
C126     C      0.256550000000     0.819740000000     0.757710000000    -0.0358366  
C127     C      0.191830000000     0.829210000000     0.833890000000     0.0486046  
C128     C      0.325480000000     0.699170000000     0.695720000000     0.0546473  
C129     C      0.797280000000     0.863630000000     0.162510000000    -0.10586    
C130     C      0.679980000000     0.612910000000     0.386620000000     0.0727968  
C131     C      0.616200000000     0.682840000000     0.386570000000     0.0726064  
C132     C      0.710270000000     0.640100000000     0.348550000000    -0.09225    
C133     C      0.780410000000     0.721180000000     0.291810000000    -0.0357855  
C134     C      0.809990000000     0.750260000000     0.254410000000    -0.0341491  
C135     C      0.724790000000     0.719170000000     0.288190000000    -0.00603504 
C136     C      0.645570000000     0.711140000000     0.348470000000    -0.0919382  
C137     C      0.784550000000     0.778060000000     0.212720000000    -0.00913261 
C138     C      0.863340000000     0.795010000000     0.153730000000    -0.0957751  
C139     C      0.729080000000     0.775060000000     0.208410000000    -0.0342467  
C140     C      0.892080000000     0.828800000000     0.119870000000     0.0711863  
C141     C      0.826840000000     0.897150000000     0.128900000000     0.10372    
C142     C      0.699540000000     0.745930000000     0.245700000000    -0.0357587  
C143     C      0.693150000000     0.689760000000     0.328870000000     0.0495417  
C144     C      0.815380000000     0.812360000000     0.175460000000     0.0556975  
Co1      Co     0.005440000000     0.932540000000     0.011980000000     0.837491   
Co2      Co     0.003450000000     0.091130000000     0.010690000000     0.835268   
Co3      Co     0.926720000000     0.011040000000     0.012170000000     0.841973   
Co4      Co     0.083940000000     0.013310000000     0.013800000000     0.840533   
Co5      Co     0.507650000000     0.591990000000     0.511580000000     0.839568   
Co6      Co     0.503760000000     0.432820000000     0.512750000000     0.839181   
Co7      Co     0.583860000000     0.510170000000     0.510480000000     0.84076    
Co8      Co     0.426900000000     0.514080000000     0.514200000000     0.83842    
H1       H      0.314240000000     0.446670000000     0.405120000000     0.0306474  
H2       H      0.186890000000     0.084230000000     0.125610000000     0.031525   
H3       H      0.203760000000     0.317640000000     0.335870000000     0.0381086  
H4       H      0.296490000000     0.211630000000     0.196070000000     0.037515   
H5       H      0.238360000000     0.133790000000     0.189720000000     0.0535968  
H6       H      0.348280000000     0.262610000000     0.260940000000     0.0376535  
H7       H      0.131030000000     0.266880000000     0.175820000000     0.0571157  
H8       H      0.261070000000     0.395670000000     0.342230000000     0.0526297  
H9       H      0.371360000000     0.263950000000     0.355250000000     0.0525895  
H10      H      0.151950000000     0.266670000000     0.270910000000     0.0377708  
H11      H      0.423750000000     0.316030000000     0.417620000000     0.0302676  
H12      H      0.074560000000     0.259780000000     0.055650000000     0.0384141  
H13      H      0.321500000000     0.448790000000     0.631770000000     0.0307552  
H14      H      0.187950000000     0.077750000000     0.897540000000     0.0316154  
H15      H      0.216720000000     0.312910000000     0.689480000000     0.0383768  
H16      H      0.299390000000     0.209650000000     0.837550000000     0.037705   
H17      H      0.243410000000     0.127940000000     0.836930000000     0.0533879  
H18      H      0.354930000000     0.265850000000     0.780340000000     0.0376414  
H19      H      0.131620000000     0.257870000000     0.839290000000     0.057134   
H20      H      0.268420000000     0.395170000000     0.692540000000     0.0524353  
H21      H      0.388500000000     0.271870000000     0.689500000000     0.0527798  
H22      H      0.161330000000     0.256950000000     0.746690000000     0.0376217  
H23      H      0.441050000000     0.326740000000     0.629740000000     0.0318174  
H24      H      0.065170000000     0.251810000000     0.953590000000     0.0402422  
H25      H      0.313470000000     0.589340000000     0.412170000000     0.0306847  
H26      H      0.193580000000     0.942930000000     0.119370000000     0.0315269  
H27      H      0.211770000000     0.726700000000     0.347170000000     0.0382769  
H28      H      0.300230000000     0.813140000000     0.191940000000     0.037927   
H29      H      0.247100000000     0.895500000000     0.183550000000     0.0537168  
H30      H      0.353060000000     0.761630000000     0.255740000000     0.0381889  
H31      H      0.130480000000     0.770200000000     0.191130000000     0.0575205  
H32      H      0.261000000000     0.642690000000     0.350830000000     0.0528876  
H33      H      0.384490000000     0.762460000000     0.348290000000     0.0530905  
H34      H      0.159040000000     0.778140000000     0.283480000000     0.0373643  
H35      H      0.436470000000     0.707800000000     0.408970000000     0.0313945  
H36      H      0.013940000000     0.822320000000     0.157550000000     0.0402616  
H37      H      0.810470000000     0.086040000000     0.111150000000     0.0286721  
H38      H      0.691560000000     0.437670000000     0.405450000000     0.0319357  
H39      H      0.708380000000     0.222200000000     0.177660000000     0.0378433  
H40      H      0.795850000000     0.305850000000     0.334970000000     0.0377669  
H41      H      0.744480000000     0.388940000000     0.342040000000     0.0536322  
H42      H      0.848940000000     0.254810000000     0.271090000000     0.0382737  
H43      H      0.625110000000     0.266330000000     0.333490000000     0.0575616  
H44      H      0.757590000000     0.138060000000     0.173190000000     0.0522441  
H45      H      0.880860000000     0.258020000000     0.178480000000     0.053184   
H46      H      0.655340000000     0.273260000000     0.241450000000     0.0372738  
H47      H      0.933420000000     0.204310000000     0.117440000000     0.0326534  
H48      H      0.509540000000     0.321730000000     0.365430000000     0.0401411  
H49      H      0.939620000000     0.823380000000     0.897520000000     0.0315772  
H50      H      0.588440000000     0.706400000000     0.604590000000     0.0325946  
H51      H      0.859350000000     0.761810000000     0.745210000000     0.0378323  
H52      H      0.663480000000     0.772000000000     0.759980000000     0.037584   
H53      H      0.641180000000     0.762600000000     0.662140000000     0.0539838  
H54      H      0.718170000000     0.826680000000     0.819140000000     0.0384122  
H55      H      0.741860000000     0.628580000000     0.698640000000     0.0578691  
H56      H      0.887460000000     0.770850000000     0.835290000000     0.0526387  
H57      H      0.775780000000     0.901570000000     0.822990000000     0.0530012  
H58      H      0.804370000000     0.706130000000     0.687120000000     0.0380092  
H59      H      0.827780000000     0.952150000000     0.886780000000     0.0340536  
H60      H      0.728790000000     0.534540000000     0.603760000000     0.0456111  
H61      H      0.566440000000     0.329120000000     0.634680000000     0.0307507  
H62      H      0.939770000000     0.188450000000     0.886570000000     0.0330943  
H63      H      0.661150000000     0.281070000000     0.783670000000     0.037901   
H64      H      0.847530000000     0.238850000000     0.735920000000     0.0377427  
H65      H      0.888900000000     0.242860000000     0.825510000000     0.0538787  
H66      H      0.793740000000     0.292350000000     0.674630000000     0.0382889  
H67      H      0.754590000000     0.139290000000     0.847840000000     0.0574596  
H68      H      0.619350000000     0.275030000000     0.695360000000     0.0528276  
H69      H      0.752460000000     0.380360000000     0.668320000000     0.0528298  
H70      H      0.714870000000     0.227650000000     0.844850000000     0.0374898  
H71      H      0.699350000000     0.432120000000     0.606520000000     0.0301628  
H72      H      0.766450000000     0.084620000000     0.969680000000     0.0417707  
H73      H      0.193920000000     0.946860000000     0.902140000000     0.0308847  
H74      H      0.323260000000     0.583570000000     0.625300000000     0.0325479  
H75      H      0.255280000000     0.862700000000     0.751160000000     0.0380055  
H76      H      0.261270000000     0.665390000000     0.777630000000     0.0374747  
H77      H      0.268330000000     0.635580000000     0.684340000000     0.0535413  
H78      H      0.205210000000     0.720000000000     0.835630000000     0.0384686  
H79      H      0.391910000000     0.753150000000     0.699290000000     0.0574267  
H80      H      0.248550000000     0.894030000000     0.842290000000     0.0525717  
H81      H      0.125610000000     0.773810000000     0.835230000000     0.0526296  
H82      H      0.311590000000     0.808080000000     0.693460000000     0.0385062  
H83      H      0.072430000000     0.826980000000     0.896090000000     0.0316878  
H84      H      0.506480000000     0.690090000000     0.675810000000     0.038923   
H85      H      0.579610000000     0.700850000000     0.400610000000     0.0306827  
H86      H      0.928640000000     0.812790000000     0.103630000000     0.0307256  
H87      H      0.656870000000     0.744260000000     0.241140000000     0.0381699  
H88      H      0.852620000000     0.752380000000     0.259110000000     0.0373484  
H89      H      0.878480000000     0.755250000000     0.162390000000     0.0536735  
H90      H      0.801030000000     0.701460000000     0.324390000000     0.0381142  
H91      H      0.760560000000     0.878260000000     0.179760000000     0.0577848  
H92      H      0.631270000000     0.749830000000     0.334930000000     0.0530183  
H93      H      0.746500000000     0.621820000000     0.334060000000     0.0528632  
H94      H      0.708450000000     0.795380000000     0.176190000000     0.0382022  
H95      H      0.694670000000     0.574390000000     0.400400000000     0.0308648  
H96      H      0.817260000000     0.995600000000     0.157560000000     0.0404192  
N1       N      0.127860000000     0.145570000000     0.113220000000    -0.19308    
N2       N      0.373440000000     0.385550000000     0.415510000000    -0.190173   
N3       N      0.126950000000     0.137950000000     0.904260000000    -0.19292    
N4       N      0.384900000000     0.391550000000     0.625600000000    -0.18965    
N5       N      0.129900000000     0.885200000000     0.117650000000    -0.193427   
N6       N      0.378960000000     0.644430000000     0.415110000000    -0.190604   
N7       N      0.626510000000     0.381450000000     0.406760000000    -0.193453   
N8       N      0.876160000000     0.140850000000     0.110180000000    -0.19091    
N9       N      0.633430000000     0.634090000000     0.617740000000    -0.192845   
N10      N      0.887290000000     0.891410000000     0.897440000000    -0.188988   
N11      N      0.877200000000     0.132340000000     0.903940000000    -0.192843   
N12      N      0.628670000000     0.385120000000     0.616660000000    -0.190233   
N13      N      0.389680000000     0.638080000000     0.625830000000    -0.192245   
N14      N      0.129300000000     0.890710000000     0.904110000000    -0.189551   
N15      N      0.874780000000     0.879790000000     0.107460000000    -0.193843   
N16      N      0.633170000000     0.633980000000     0.405400000000    -0.191088   
O1       O      0.958250000000     0.900100000000     0.954480000000    -0.365475   
O2       O      0.052230000000     0.123840000000     0.955460000000    -0.370486   
O3       O      0.891560000000     0.059050000000     0.958000000000    -0.365678   
O4       O      0.117610000000     0.964080000000     0.958540000000    -0.369104   
O5       O      0.953020000000     0.122320000000     0.954720000000    -0.365424   
O6       O      0.055220000000     0.900950000000     0.956450000000    -0.367995   
O7       O      0.116780000000     0.063730000000     0.958630000000    -0.366748   
O8       O      0.896940000000     0.964180000000     0.952900000000    -0.365524   
O9       O      0.056440000000     0.897640000000     0.063970000000    -0.364628   
O10      O      0.951300000000     0.128060000000     0.060150000000    -0.36172    
O11      O      0.889980000000     0.957310000000     0.059700000000    -0.36698    
O12      O      0.117510000000     0.068220000000     0.063650000000    -0.363099   
O13      O      0.054250000000     0.129730000000     0.060520000000    -0.360057   
O14      O      0.951300000000     0.893890000000     0.058790000000    -0.361673   
O15      O      0.118510000000     0.960440000000     0.065130000000    -0.364325   
O16      O      0.889780000000     0.064200000000     0.061140000000    -0.363742   
O17      O      0.005040000000     0.012020000000     0.034170000000    -0.593739   
O18      O      0.559520000000     0.625440000000     0.458870000000    -0.362802   
O19      O      0.448870000000     0.396450000000     0.465710000000    -0.362253   
O20      O      0.617020000000     0.456800000000     0.459190000000    -0.362078   
O21      O      0.390960000000     0.568240000000     0.465410000000    -0.363356   
O22      O      0.553180000000     0.395940000000     0.460300000000    -0.36298    
O23      O      0.454760000000     0.629870000000     0.463640000000    -0.363345   
O24      O      0.389120000000     0.462090000000     0.464360000000    -0.362949   
O25      O      0.620100000000     0.560610000000     0.458930000000    -0.36575    
O26      O      0.461100000000     0.625480000000     0.569120000000    -0.365941   
O27      O      0.552690000000     0.399230000000     0.568040000000    -0.367268   
O28      O      0.618110000000     0.558710000000     0.566100000000    -0.368865   
O29      O      0.395120000000     0.465300000000     0.571230000000    -0.367351   
O30      O      0.456860000000     0.401540000000     0.570540000000    -0.368027   
O31      O      0.559410000000     0.624830000000     0.564620000000    -0.36776    
O32      O      0.397880000000     0.563840000000     0.571530000000    -0.368869   
O33      O      0.618280000000     0.458610000000     0.562530000000    -0.368639   
O34      O      0.504900000000     0.512250000000     0.490580000000    -0.59356    
S1       S      0.058340000000     0.232110000000     0.100150000000    -0.0314273  
S2       S      0.053830000000     0.222570000000     0.908540000000    -0.0316897  
S3       S      0.051990000000     0.805160000000     0.122320000000    -0.0297859  
S4       S      0.546590000000     0.303680000000     0.401310000000    -0.0291817  
S5       S      0.693800000000     0.544200000000     0.644640000000    -0.0361919  
S6       S      0.789380000000     0.066270000000     0.923390000000    -0.0287406  
S7       S      0.473210000000     0.710830000000     0.637660000000    -0.0289778  
S8       S      0.799210000000     0.961610000000     0.118440000000    -0.0298886  


