data_structure

_audit_creation_method RASPA-1.0
_audit_creation_date 2023-6-4
_audit_author_name 'Poobodin Mano'

_cell_length_a    20.9143
_cell_length_b    22.0582
_cell_length_c    21.2741
_cell_angle_alpha 87.1368
_cell_angle_beta  93.8164
_cell_angle_gamma 120.433
_cell_volume      8441.94

_symmetry_cell_setting          triclinic
_symmetry_space_group_name_Hall 'P 1'
_symmetry_space_group_name_H-M  'P 1'
_symmetry_Int_Tables_number     1

_symmetry_equiv_pos_as_xyz 'x,y,z'

loop_
_atom_site_label
_atom_site_type_symbol
_atom_site_fract_x
_atom_site_fract_y
_atom_site_fract_z
_atom_site_charge
C1       C      0.088900000000     0.216180000000     0.118130000000     0.471352   
C2       C      0.001930000000     0.954800000000     0.990800000000     0.470532   
C3       C      0.126600000000     0.098810000000     0.938500000000     0.476624   
C4       C      0.966670000000     0.076140000000     0.161930000000     0.462059   
C5       C      0.055470000000     0.992000000000     0.237930000000     0.474931   
C6       C      0.286010000000     0.143130000000     0.041690000000     0.464957   
C7       C      0.266770000000     0.220230000000     0.151490000000     0.466582   
C8       C      0.080820000000     0.916130000000     0.130690000000     0.479992   
C9       C      0.054480000000     0.973990000000     0.464800000000     0.478518   
C10      C      0.119100000000     0.217570000000     0.587370000000     0.482325   
C11      C      0.917180000000     0.976250000000     0.541740000000     0.459606   
C12      C      0.250860000000     0.204450000000     0.547730000000     0.475014   
C13      C      0.257310000000     0.075320000000     0.655350000000     0.477652   
C14      C      0.959450000000     0.958200000000     0.698270000000     0.482371   
C15      C      0.138440000000     0.929650000000     0.589910000000     0.480053   
C16      C      0.067060000000     0.120860000000     0.735950000000     0.484374   
C17      C      0.026940000000     0.432610000000     0.019900000000     0.519695   
C18      C      0.139450000000     0.740620000000     0.135490000000     0.355245   
C19      C      0.004020000000     0.588190000000     0.146420000000     0.471234   
C20      C      0.203280000000     0.625870000000     0.967040000000     0.500204   
C21      C      0.320860000000     0.626910000000     0.103040000000     0.478119   
C22      C      0.134280000000     0.565390000000     0.263500000000     0.460252   
C23      C      0.120530000000     0.408150000000     0.161070000000     0.549684   
C24      C      0.299560000000     0.772660000000     0.114810000000     0.383258   
C25      C      0.968310000000     0.394600000000     0.584980000000     0.519534   
C26      C      0.050520000000     0.694110000000     0.604520000000     0.396522   
C27      C      0.938810000000     0.493270000000     0.669340000000     0.468741   
C28      C      0.095440000000     0.541270000000     0.465680000000     0.47452    
C29      C      0.258390000000     0.586740000000     0.571220000000     0.47936    
C30      C      0.106120000000     0.571770000000     0.771250000000     0.467777   
C31      C      0.141400000000     0.402800000000     0.628280000000     0.40283    
C32      C      0.224680000000     0.715920000000     0.665960000000     0.526081   
C33      C      0.520900000000     0.165750000000     0.099380000000     0.47779    
C34      C      0.630460000000     0.928680000000     0.081440000000     0.395909   
C35      C      0.664280000000     0.099150000000     0.964000000000     0.483803   
C36      C      0.482330000000     0.005100000000     0.116710000000     0.478955   
C37      C      0.580770000000     0.012740000000     0.254660000000     0.469933   
C38      C      0.812620000000     0.243570000000     0.052400000000     0.493137   
C39      C      0.702480000000     0.266470000000     0.176070000000     0.445571   
C40      C      0.755970000000     0.052250000000     0.200150000000     0.504422   
C41      C      0.452500000000     0.041140000000     0.627310000000     0.470559   
C42      C      0.625180000000     0.928400000000     0.528550000000     0.487203   
C43      C      0.621110000000     0.057350000000     0.462050000000     0.47641    
C44      C      0.468170000000     0.919660000000     0.699090000000     0.485281   
C45      C      0.650970000000     0.006430000000     0.771480000000     0.472956   
C46      C      0.726380000000     0.203170000000     0.566090000000     0.483827   
C47      C      0.623640000000     0.197400000000     0.660810000000     0.459388   
C48      C      0.751100000000     0.002140000000     0.651460000000     0.4656     
C49      C      0.504450000000     0.420720000000     0.101420000000     0.502769   
C50      C      0.601800000000     0.717090000000     0.049310000000     0.469315   
C51      C      0.546060000000     0.638210000000     0.191730000000     0.485144   
C52      C      0.638680000000     0.577190000000     0.949480000000     0.489057   
C53      C      0.806860000000     0.632060000000     0.061690000000     0.49791    
C54      C      0.718480000000     0.639820000000     0.253890000000     0.468151   
C55      C      0.673290000000     0.462990000000     0.177600000000     0.496632   
C56      C      0.791190000000     0.795270000000     0.048200000000     0.426662   
C57      C      0.485250000000     0.424780000000     0.545840000000     0.49172    
C58      C      0.650000000000     0.743190000000     0.557580000000     0.384366   
C59      C      0.476830000000     0.563270000000     0.586400000000     0.463853   
C60      C      0.731310000000     0.628170000000     0.482140000000     0.461263   
C61      C      0.772260000000     0.564130000000     0.629890000000     0.477058   
C62      C      0.579270000000     0.606430000000     0.742360000000     0.46016    
C63      C      0.611850000000     0.414360000000     0.658790000000     0.479819   
C64      C      0.775500000000     0.742400000000     0.679400000000     0.388197   
C65      C      0.649060000000     0.636790000000     0.845740000000     0.0851038  
C66      C      0.722560000000     0.609440000000     0.367540000000     0.0799389  
C67      C      0.587060000000     0.805440000000     0.506340000000     0.0799619  
C68      C      0.613900000000     0.304720000000     0.642930000000     0.0795309  
C69      C      0.705970000000     0.058890000000     0.876360000000     0.0797207  
C70      C      0.546460000000     0.021250000000     0.361790000000     0.0909201  
C71      C      0.558540000000     0.802640000000     0.055200000000     0.0796563  
C72      C      0.736450000000     0.393720000000     0.173310000000     0.080123   
C73      C      0.838580000000     0.310340000000     0.602760000000     0.0891313  
C74      C      0.357350000000     0.804140000000     0.682110000000     0.0855665  
C75      C      0.819370000000     0.482770000000     0.633400000000     0.0912442  
C76      C      0.355670000000     0.555630000000     0.595030000000     0.0856705  
C77      C      0.203660000000     0.607170000000     0.855690000000     0.0872275  
C78      C      0.093630000000     0.493410000000     0.362390000000     0.0846722  
C79      C      0.895610000000     0.349780000000     0.986590000000     0.0884207  
C80      C      0.381330000000     0.892840000000     0.075970000000     0.0835186  
C81      C      0.901850000000     0.595120000000     0.084130000000     0.0830521  
C82      C      0.418080000000     0.617690000000     0.169160000000     0.0790107  
C83      C      0.892660000000     0.834640000000     0.734640000000     0.0855888  
C84      C      0.372330000000     0.311280000000     0.555800000000     0.0841833  
C85      C      0.800900000000     0.939780000000     0.594450000000     0.0783125  
C86      C      0.385250000000     0.098650000000     0.656520000000     0.08797    
C87      C      0.053200000000     0.804640000000     0.612710000000     0.0882755  
C88      C      0.205360000000     0.345700000000     0.588010000000     0.0929017  
C89      C      0.111870000000     0.162160000000     0.844850000000     0.0911834  
C90      C      0.082200000000     0.983040000000     0.352060000000     0.0840351  
C91      C      0.868130000000     0.884110000000     0.967670000000     0.0818208  
C92      C      0.378020000000     0.338450000000     0.137200000000     0.0810475  
C93      C      0.880330000000     0.075830000000     0.239030000000     0.0847791  
C94      C      0.400840000000     0.133670000000     0.040130000000     0.0803416  
C95      C      0.128630000000     0.839040000000     0.173680000000     0.0774413  
C96      C      0.054670000000     0.282290000000     0.186310000000     0.0844908  
Co1      Co     0.126050000000     0.123430000000     0.189210000000     1.03873    
Co2      Co     0.152990000000     0.022680000000     0.045250000000     1.06873    
Co3      Co     0.162360000000     0.174080000000     0.044530000000     1.09164    
Co4      Co     0.004680000000     0.995470000000     0.105890000000     1.1077     
Co5      Co     0.172970000000     0.065110000000     0.535170000000     1.08199    
Co6      Co     0.011050000000     0.082940000000     0.608450000000     1.07186    
Co7      Co     0.027690000000     0.948080000000     0.603810000000     1.10275    
Co8      Co     0.175950000000     0.137680000000     0.663110000000     1.0876     
Co9      Co     0.187090000000     0.514380000000     0.061730000000     1.17682    
Co10     Co     0.164160000000     0.656480000000     0.161650000000     0.799515   
Co11     Co     0.042260000000     0.486850000000     0.145300000000     1.15917    
Co12     Co     0.204970000000     0.669480000000     0.083110000000     0.861533   
Co13     Co     0.113820000000     0.487120000000     0.585470000000     1.15854    
Co14     Co     0.069470000000     0.612040000000     0.651600000000     1.22514    
Co15     Co     0.059810000000     0.464870000000     0.688810000000     0.917156   
Co16     Co     0.156320000000     0.640800000000     0.556450000000     0.993331   
Co17     Co     0.599220000000     0.128570000000     0.190620000000     1.07606    
Co18     Co     0.743920000000     0.102290000000     0.085290000000     1.0147     
Co19     Co     0.649610000000     0.183760000000     0.051050000000     1.03931    
Co20     Co     0.612200000000     0.008920000000     0.129160000000     1.10477    
Co21     Co     0.584990000000     0.067220000000     0.706540000000     1.08747    
Co22     Co     0.713180000000     0.075410000000     0.574240000000     1.10482    
Co23     Co     0.571360000000     0.094780000000     0.558740000000     1.05881    
Co24     Co     0.590190000000     0.938130000000     0.646460000000     1.10899    
Co25     Co     0.659150000000     0.513660000000     0.060000000000     1.10322    
Co26     Co     0.691160000000     0.704370000000     0.151930000000     0.870131   
Co27     Co     0.579340000000     0.532100000000     0.180350000000     1.12849    
Co28     Co     0.696650000000     0.672820000000     0.050490000000     1.04461    
Co29     Co     0.637590000000     0.507180000000     0.546440000000     1.14302    
Co30     Co     0.620300000000     0.650090000000     0.619070000000     0.934431   
Co31     Co     0.545430000000     0.495640000000     0.666690000000     1.11329    
Co32     Co     0.722840000000     0.657740000000     0.608120000000     0.912117   
H1       H      0.581590000000     0.677790000000     0.803400000000     0.112199   
H2       H      0.569990000000     0.528180000000     0.870620000000     0.117711   
H3       H      0.694140000000     0.635140000000     0.822330000000     0.0408431  
H4       H      0.675640000000     0.686540000000     0.872430000000     0.0397975  
H5       H      0.811500000000     0.692260000000     0.314000000000     0.109164   
H6       H      0.818760000000     0.686040000000     0.423760000000     0.110927   
H7       H      0.663390000000     0.595430000000     0.367580000000     0.0439802  
H8       H      0.724670000000     0.560150000000     0.366760000000     0.0209225  
H9       H      0.666880000000     0.899210000000     0.458340000000     0.108496   
H10      H      0.669220000000     0.788140000000     0.468270000000     0.111089   
H11      H      0.558370000000     0.793690000000     0.551360000000     0.0403649  
H12      H      0.544050000000     0.776820000000     0.468560000000     0.0275242  
H13      H      0.613880000000     0.349340000000     0.731840000000     0.106811   
H14      H      0.681960000000     0.287060000000     0.714580000000     0.106245   
H15      H      0.555150000000     0.269890000000     0.626340000000     0.0285335  
H16      H      0.647730000000     0.329580000000     0.601090000000     0.0252193  
H17      H      0.650640000000     0.949070000000     0.851920000000     0.109035   
H18      H      0.608410000000     0.070180000000     0.876230000000     0.106397   
H19      H      0.737270000000     0.045600000000     0.913360000000     0.0311766  
H20      H      0.747380000000     0.107010000000     0.851240000000     0.0374733  
H21      H      0.665060000000     0.066490000000     0.375600000000     0.123201   
H22      H      0.510060000000     0.927420000000     0.309520000000     0.115025   
H23      H      0.498280000000     0.985890000000     0.390610000000     0.0318574  
H24      H      0.539660000000     0.066260000000     0.344810000000     0.0124089  
H25      H      0.540810000000     0.734800000000     0.977130000000     0.111005   
H26      H      0.666900000000     0.881870000000     0.020910000000     0.109165   
H27      H      0.509940000000     0.805200000000     0.033840000000     0.0297275  
H28      H      0.547700000000     0.786930000000     0.105550000000     0.0414749  
H29      H      0.747950000000     0.333890000000     0.251580000000     0.10723    
H30      H      0.660040000000     0.384970000000     0.243460000000     0.107597   
H31      H      0.794790000000     0.437740000000     0.177890000000     0.0257608  
H32      H      0.720640000000     0.385350000000     0.122170000000     0.0331151  
H33      H      0.750350000000     0.303870000000     0.539510000000     0.105573   
H34      H      0.885640000000     0.362990000000     0.514410000000     0.117315   
H35      H      0.833120000000     0.342890000000     0.637520000000     0.0244245  
H36      H      0.852480000000     0.273590000000     0.629580000000     0.0469515  
H37      H      0.271280000000     0.768420000000     0.749430000000     0.112884   
H38      H      0.383060000000     0.873850000000     0.761280000000     0.110128   
H39      H      0.383830000000     0.771360000000     0.689220000000     0.0267304  
H40      H      0.356540000000     0.817700000000     0.631030000000     0.047544   
H41      H      0.847030000000     0.565640000000     0.699970000000     0.127223   
H42      H      0.839540000000     0.428280000000     0.712200000000     0.1079     
H43      H      0.762360000000     0.436560000000     0.630110000000     0.0204923  
H44      H      0.840520000000     0.495270000000     0.585030000000     0.0380863  
H45      H      0.418400000000     0.578780000000     0.512300000000     0.113615   
H46      H      0.363180000000     0.642880000000     0.536340000000     0.113037   
H47      H      0.311040000000     0.499660000000     0.596590000000     0.0343812  
H48      H      0.375680000000     0.573750000000     0.644080000000     0.037296   
H49      H      0.236860000000     0.704030000000     0.899030000000     0.115867   
H50      H      0.116620000000     0.633330000000     0.844630000000     0.12215    
H51      H      0.248480000000     0.630790000000     0.821520000000     0.0294761  
H52      H      0.193260000000     0.553760000000     0.869850000000     0.0347148  
H53      H      0.033610000000     0.543120000000     0.386470000000     0.115849   
H54      H      0.198220000000     0.586940000000     0.346920000000     0.11674    
H55      H      0.120200000000     0.465960000000     0.387810000000     0.0367016  
H56      H      0.046120000000     0.453670000000     0.333060000000     0.0322806  
H57      H      0.926640000000     0.298100000000     0.061160000000     0.114051   
H58      H      0.994160000000     0.379980000000     0.934870000000     0.109535   
H59      H      0.864450000000     0.323450000000     0.942390000000     0.0241789  
H60      H      0.876530000000     0.385840000000     0.000250000000     0.034229   
H61      H      0.396090000000     0.844560000000     0.164020000000     0.12283    
H62      H      0.371590000000     0.964940000000     0.133410000000     0.11426    
H63      H      0.422290000000     0.894080000000     0.044430000000     0.0432086  
H64      H      0.332340000000     0.884270000000     0.045400000000     0.0396865  
H65      H      0.966930000000     0.655540000000     0.166070000000     0.111875   
H66      H      0.916470000000     0.699060000000     0.088880000000     0.116078   
H67      H      0.925180000000     0.592590000000     0.039550000000     0.0411549  
H68      H      0.854060000000     0.542270000000     0.095080000000     0.0359758  
H69      H      0.514550000000     0.711490000000     0.207850000000     0.112777   
H70      H      0.424240000000     0.712380000000     0.126350000000     0.114001   
H71      H      0.409130000000     0.571880000000     0.142200000000     0.0488853  
H72      H      0.384560000000     0.597100000000     0.211630000000     0.0323023  
H73      H      0.856940000000     0.911460000000     0.738040000000     0.112559   
H74      H      0.783970000000     0.775980000000     0.770190000000     0.108511   
H75      H      0.922130000000     0.825390000000     0.697910000000     0.0344424  
H76      H      0.917020000000     0.829890000000     0.781340000000     0.0290149  
H77      H      0.420560000000     0.367940000000     0.468180000000     0.105967   
H78      H      0.300060000000     0.270730000000     0.471040000000     0.107239   
H79      H      0.400370000000     0.282240000000     0.574730000000     0.0272049  
H80      H      0.357030000000     0.330630000000     0.596240000000     0.0302057  
H81      H      0.837690000000     0.000670000000     0.509050000000     0.102548   
H82      H      0.861530000000     0.044540000000     0.633620000000     0.0940491  
H83      H      0.742840000000     0.906280000000     0.576450000000     0.0426073  
H84      H      0.814060000000     0.904770000000     0.624730000000     0.0448795  
H85      H      0.352050000000     0.021480000000     0.584280000000     0.114399   
H86      H      0.310340000000     0.055090000000     0.732190000000     0.113176   
H87      H      0.428940000000     0.121990000000     0.695000000000     0.0275456  
H88      H      0.395590000000     0.142990000000     0.623330000000     0.0244046  
H89      H      0.141450000000     0.849930000000     0.546100000000     0.113127   
H90      H      0.022210000000     0.741580000000     0.531500000000     0.10927    
H91      H      0.066190000000     0.800760000000     0.663840000000     0.0421613  
H92      H      0.006760000000     0.815720000000     0.607990000000     0.00928552 
H93      H      0.114260000000     0.287410000000     0.520830000000     0.124299   
H94      H      0.198180000000     0.364660000000     0.685320000000     0.109821   
H95      H      0.249970000000     0.335400000000     0.606260000000     0.0222111  
H96      H      0.229380000000     0.387000000000     0.550510000000     0.0292108  
H97      H      0.136460000000     0.077890000000     0.847120000000     0.127647   
H98      H      0.012860000000     0.148830000000     0.795480000000     0.110571   
H99      H      0.096660000000     0.188540000000     0.879260000000     0.0255998  
H100     H      0.166280000000     0.203040000000     0.826960000000     0.010897   
H101     H      0.003990000000     0.890520000000     0.403960000000     0.106997   
H102     H      0.981720000000     0.914860000000     0.297240000000     0.114695   
H103     H      0.103420000000     0.040420000000     0.355300000000     0.0344483  
H104     H      0.130230000000     0.974730000000     0.350700000000     0.0262168  
H105     H      0.882090000000     0.891690000000     0.069740000000     0.0857763  
H106     H      0.952490000000     0.863910000000     0.938560000000     0.115851   
H107     H      0.830370000000     0.844190000000     0.932670000000     0.0360717  
H108     H      0.862480000000     0.931310000000     0.958670000000     0.0322128  
H109     H      0.369000000000     0.253250000000     0.198910000000     0.106335   
H110     H      0.447230000000     0.313120000000     0.084780000000     0.110014   
H111     H      0.341430000000     0.347810000000     0.102790000000     0.0363793  
H112     H      0.392300000000     0.375070000000     0.176660000000     0.0254062  
H113     H      0.773440000000     0.993150000000     0.270990000000     0.110417   
H114     H      0.860010000000     0.051310000000     0.139390000000     0.109439   
H115     H      0.903790000000     0.132700000000     0.247690000000     0.0352173  
H116     H      0.903840000000     0.054280000000     0.276070000000     0.0296181  
H117     H      0.440120000000     0.183730000000     0.129970000000     0.112013   
H118     H      0.384890000000     0.218170000000     0.003510000000     0.103961   
H119     H      0.428760000000     0.136660000000     0.996450000000     0.0284214  
H120     H      0.363640000000     0.077080000000     0.051800000000     0.031307   
H121     H      0.090420000000     0.788850000000     0.083120000000     0.112608   
H122     H      0.017940000000     0.820420000000     0.176030000000     0.109576   
H123     H      0.125240000000     0.816710000000     0.222190000000     0.0379317  
H124     H      0.185280000000     0.885340000000     0.169020000000     0.0397633  
H125     H      0.018090000000     0.253560000000     0.088990000000     0.107511   
H126     H      0.171620000000     0.351480000000     0.187590000000     0.12001    
H127     H      0.004100000000     0.286180000000     0.190310000000     0.0290046  
H128     H      0.057030000000     0.250060000000     0.227310000000     0.029291   
N1       N      0.612920000000     0.575690000000     0.888690000000    -0.231751   
N2       N      0.595890000000     0.639270000000     0.798410000000    -0.229774   
N3       N      0.762450000000     0.647950000000     0.425150000000    -0.231961   
N4       N      0.756020000000     0.651780000000     0.310890000000    -0.232986   
N5       N      0.640970000000     0.781230000000     0.509180000000    -0.213716   
N6       N      0.625310000000     0.880790000000     0.490890000000    -0.237203   
N7       N      0.642200000000     0.263270000000     0.677720000000    -0.236491   
N8       N      0.617120000000     0.358700000000     0.683150000000    -0.239322   
N9       N      0.652620000000     0.073290000000     0.904770000000    -0.234763   
N10      N      0.668100000000     0.999500000000     0.833170000000    -0.235021   
N11      N      0.546090000000     0.981890000000     0.308570000000    -0.237793   
N12      N      0.615950000000     0.047320000000     0.399250000000    -0.23854    
N13      N      0.625550000000     0.873100000000     0.051210000000    -0.212803   
N14      N      0.565170000000     0.748790000000     0.022530000000    -0.23387    
N15      N      0.688030000000     0.413340000000     0.203650000000    -0.239244   
N16      N      0.732270000000     0.330460000000     0.203580000000    -0.228831   
N17      N      0.898270000000     0.354760000000     0.561350000000    -0.247668   
N18      N      0.768820000000     0.273810000000     0.565750000000    -0.241001   
N19      N      0.400740000000     0.868980000000     0.717950000000    -0.239572   
N20      N      0.281480000000     0.763970000000     0.702890000000    -0.246522   
N21      N      0.865030000000     0.464350000000     0.675390000000    -0.237506   
N22      N      0.817370000000     0.542500000000     0.657970000000    -0.234067   
N23      N      0.328010000000     0.599700000000     0.564330000000    -0.236027   
N24      N      0.415620000000     0.561380000000     0.559270000000    -0.235013   
N25      N      0.136410000000     0.602870000000     0.826660000000    -0.236473   
N26      N      0.226360000000     0.652970000000     0.909320000000    -0.240227   
N27      N      0.148050000000     0.551050000000     0.323990000000    -0.231835   
N28      N      0.066500000000     0.523080000000     0.406100000000    -0.232752   
N29      N      0.975840000000     0.390090000000     0.975490000000    -0.242236   
N30      N      0.880850000000     0.296760000000     0.036700000000    -0.238059   
N31      N      0.409010000000     0.959420000000     0.107420000000    -0.23501    
N32      N      0.361870000000     0.835890000000     0.123350000000    -0.213388   
N33      N      0.877840000000     0.647370000000     0.076060000000    -0.236323   
N34      N      0.958830000000     0.615770000000     0.136140000000    -0.232224   
N35      N      0.391330000000     0.657700000000     0.129400000000    -0.232633   
N36      N      0.497000000000     0.661900000000     0.189940000000    -0.236011   
N37      N      0.813900000000     0.781440000000     0.730720000000    -0.214952   
N38      N      0.901510000000     0.905130000000     0.728090000000    -0.236756   
N39      N      0.304840000000     0.263090000000     0.519640000000    -0.241239   
N40      N      0.424280000000     0.371080000000     0.517290000000    -0.24238    
N41      N      0.809590000000     0.998540000000     0.631810000000    -0.233331   
N42      N      0.848230000000     0.968050000000     0.540000000000    -0.235252   
N43      N      0.313600000000     0.069840000000     0.684490000000    -0.237852   
N44      N      0.389460000000     0.044530000000     0.622730000000    -0.23529    
N45      N      0.029370000000     0.739230000000     0.580530000000    -0.215278   
N46      N      0.118890000000     0.861800000000     0.582800000000    -0.242714   
N47      N      0.181360000000     0.370240000000     0.639060000000    -0.216932   
N48      N      0.142530000000     0.282210000000     0.561250000000    -0.235549   
N49      N      0.055460000000     0.137450000000     0.792970000000    -0.238006   
N50      N      0.119880000000     0.104810000000     0.874850000000    -0.23611    
N51      N      0.035970000000     0.957260000000     0.294100000000    -0.239284   
N52      N      0.038850000000     0.945010000000     0.406960000000    -0.236567   
N53      N      0.944390000000     0.901700000000     0.958590000000    -0.233442   
N54      N      0.849240000000     0.858850000000     0.032910000000    -0.219793   
N55      N      0.445270000000     0.354100000000     0.105460000000    -0.241933   
N56      N      0.340180000000     0.266340000000     0.164040000000    -0.235818   
N57      N      0.900260000000     0.067230000000     0.176440000000    -0.232387   
N58      N      0.798820000000     0.038420000000     0.242450000000    -0.240208   
N59      N      0.358420000000     0.170030000000     0.028000000000    -0.235044   
N60      N      0.456020000000     0.166530000000     0.092180000000    -0.237409   
N61      N      0.071730000000     0.858660000000     0.164280000000    -0.237388   
N62      N      0.114880000000     0.786720000000     0.127070000000    -0.210495   
N63      N      0.121710000000     0.351690000000     0.187650000000    -0.250131   
N64      N      0.049530000000     0.248460000000     0.126960000000    -0.236103   
O1       O      0.127350000000     0.209370000000     0.163330000000    -0.440781   
O2       O      0.059680000000     0.951650000000     0.005680000000    -0.439439   
O3       O      0.103590000000     0.127120000000     0.973810000000    -0.45016    
O4       O      0.973010000000     0.060150000000     0.107710000000    -0.452109   
O5       O      0.160730000000     0.068850000000     0.962820000000    -0.439945   
O6       O      0.019500000000     0.092030000000     0.203080000000    -0.422716   
O7       O      0.991910000000     0.998000000000     0.018590000000    -0.446064   
O8       O      0.084960000000     0.189800000000     0.065680000000    -0.436798   
O9       O      0.120610000000     0.042540000000     0.229770000000    -0.439526   
O10      O      0.251810000000     0.086460000000     0.072960000000    -0.440722   
O11      O      0.232140000000     0.234470000000     0.107840000000    -0.45106    
O12      O      0.023750000000     0.918540000000     0.110990000000    -0.453506   
O13      O      0.144560000000     0.966310000000     0.117920000000    -0.440477   
O14      O      0.231900000000     0.164140000000     0.184100000000    -0.425545   
O15      O      0.005090000000     0.978770000000     0.195550000000    -0.456919   
O16      O      0.250880000000     0.173110000000     0.019350000000    -0.440237   
O17      O      0.113480000000     0.078560000000     0.097800000000    -0.524543   
O18      O      0.099540000000     0.038880000000     0.470990000000    -0.445638   
O19      O      0.065610000000     0.164580000000     0.560960000000    -0.448545   
O20      O      0.931000000000     0.935700000000     0.576040000000    -0.430554   
O21      O      0.255460000000     0.192950000000     0.606150000000    -0.451612   
O22      O      0.971090000000     0.036220000000     0.531210000000    -0.438739   
O23      O      0.198000000000     0.158310000000     0.515340000000    -0.45331    
O24      O      0.150980000000     0.210190000000     0.637940000000    -0.442066   
O25      O      0.032060000000     0.934300000000     0.513530000000    -0.43885    
O26      O      0.256380000000     0.087180000000     0.596200000000    -0.438764   
O27      O      0.949500000000     0.002690000000     0.665360000000    -0.435452   
O28      O      0.110890000000     0.944870000000     0.632110000000    -0.461835   
O29      O      0.112170000000     0.100060000000     0.730260000000    -0.452973   
O30      O      0.036370000000     0.131260000000     0.686950000000    -0.453189   
O31      O      0.160210000000     0.971140000000     0.543180000000    -0.448086   
O32      O      0.210040000000     0.076180000000     0.688430000000    -0.442504   
O33      O      0.013960000000     0.951630000000     0.687960000000    -0.45225    
O34      O      0.096490000000     0.059170000000     0.602100000000    -0.524787   
O35      O      0.095670000000     0.457710000000     0.013230000000    -0.473096   
O36      O      0.170820000000     0.736360000000     0.188570000000    -0.353952   
O37      O      0.996140000000     0.538540000000     0.115860000000    -0.455262   
O38      O      0.178070000000     0.654100000000     0.999700000000    -0.417264   
O39      O      0.058960000000     0.615510000000     0.184360000000    -0.388396   
O40      O      0.215340000000     0.578420000000     0.990420000000    -0.456482   
O41      O      0.128210000000     0.697850000000     0.090570000000    -0.408534   
O42      O      0.004780000000     0.443570000000     0.069130000000    -0.488183   
O43      O      0.278290000000     0.562040000000     0.107110000000    -0.464845   
O44      O      0.181550000000     0.623300000000     0.238590000000    -0.391833   
O45      O      0.069900000000     0.420350000000     0.171920000000    -0.493009   
O46      O      0.261920000000     0.760770000000     0.063310000000    -0.381694   
O47      O      0.277520000000     0.722470000000     0.156870000000    -0.401065   
O48      O      0.167220000000     0.444680000000     0.121480000000    -0.506593   
O49      O      0.297400000000     0.663200000000     0.073300000000    -0.385986   
O50      O      0.074550000000     0.521310000000     0.232940000000    -0.421456   
O51      O      0.145160000000     0.566330000000     0.112490000000    -0.529456   
O52      O      0.015620000000     0.442990000000     0.553450000000    -0.480418   
O53      O      0.037580000000     0.671780000000     0.661600000000    -0.431723   
O54      O      0.975150000000     0.473820000000     0.706890000000    -0.411996   
O55      O      0.085980000000     0.584650000000     0.493800000000    -0.444835   
O56      O      0.972050000000     0.541440000000     0.628510000000    -0.451761   
O57      O      0.128140000000     0.512400000000     0.495280000000    -0.403861   
O58      O      0.089740000000     0.679590000000     0.570560000000    -0.477168   
O59      O      0.986230000000     0.388500000000     0.640850000000    -0.467533   
O60      O      0.216790000000     0.538260000000     0.607930000000    -0.444786   
O61      O      0.062440000000     0.587830000000     0.740320000000    -0.415193   
O62      O      0.132790000000     0.433940000000     0.674370000000    -0.427398   
O63      O      0.233310000000     0.704970000000     0.611200000000    -0.465507   
O64      O      0.161490000000     0.681690000000     0.686200000000    -0.480616   
O65      O      0.121630000000     0.411120000000     0.571710000000    -0.432291   
O66      O      0.232820000000     0.619360000000     0.537070000000    -0.418772   
O67      O      0.125130000000     0.531640000000     0.748100000000    -0.426207   
O68      O      0.104870000000     0.555440000000     0.622110000000    -0.656009   
O69      O      0.557100000000     0.181930000000     0.150870000000    -0.456506   
O70      O      0.685220000000     0.992410000000     0.072720000000    -0.452305   
O71      O      0.622010000000     0.118440000000     0.984330000000    -0.440169   
O72      O      0.528680000000     0.000030000000     0.084470000000    -0.44837    
O73      O      0.718340000000     0.104580000000     0.998410000000    -0.464378   
O74      O      0.504230000000     0.045880000000     0.164000000000    -0.439652   
O75      O      0.579780000000     0.918200000000     0.117620000000    -0.419841   
O76      O      0.543770000000     0.143960000000     0.057880000000    -0.441987   
O77      O      0.626730000000     0.077900000000     0.250490000000    -0.448187   
O78      O      0.809150000000     0.198030000000     0.091320000000    -0.449115   
O79      O      0.682660000000     0.258900000000     0.116800000000    -0.404644   
O80      O      0.689020000000     0.008370000000     0.188880000000    -0.433777   
O81      O      0.784960000000     0.103890000000     0.164380000000    -0.464057   
O82      O      0.686560000000     0.212900000000     0.211810000000    -0.430102   
O83      O      0.559830000000     0.977860000000     0.205060000000    -0.418933   
O84      O      0.753230000000     0.236550000000     0.026650000000    -0.442366   
O85      O      0.655840000000     0.113890000000     0.120620000000    -0.558066   
O86      O      0.497680000000     0.068040000000     0.674170000000    -0.455092   
O87      O      0.685060000000     0.986080000000     0.537720000000    -0.458606   
O88      O      0.563970000000     0.036630000000     0.493130000000    -0.443218   
O89      O      0.491750000000     0.912890000000     0.648850000000    -0.463896   
O90      O      0.684470000000     0.090000000000     0.489670000000    -0.450747   
O91      O      0.509530000000     0.972150000000     0.733160000000    -0.444924   
O92      O      0.570500000000     0.911790000000     0.561700000000    -0.444854   
O93      O      0.473600000000     0.025210000000     0.579850000000    -0.435136   
O94      O      0.664820000000     0.065470000000     0.749270000000    -0.446186   
O95      O      0.746450000000     0.165940000000     0.599020000000    -0.459019   
O96      O      0.578510000000     0.167460000000     0.614450000000    -0.432888   
O97      O      0.687190000000     0.948910000000     0.646210000000    -0.449947   
O98      O      0.755100000000     0.060970000000     0.651120000000    -0.443119   
O99      O      0.650150000000     0.164470000000     0.692070000000    -0.440982   
O100     O      0.612430000000     0.952240000000     0.738080000000    -0.43715    
O101     O      0.665090000000     0.174490000000     0.534390000000    -0.447331   
O102     O      0.614460000000     0.043280000000     0.620650000000    -0.524836   
O103     O      0.563990000000     0.432190000000     0.079150000000    -0.456486   
O104     O      0.636830000000     0.737380000000     0.101160000000    -0.45322    
O105     O      0.527310000000     0.579820000000     0.170370000000    -0.468967   
O106     O      0.691820000000     0.632840000000     0.971980000000    -0.418507   
O107     O      0.612910000000     0.676270000000     0.210040000000    -0.417138   
O108     O      0.610540000000     0.522990000000     0.984030000000    -0.45377    
O109     O      0.607210000000     0.671170000000     0.021250000000    -0.427234   
O110     O      0.503150000000     0.470220000000     0.126150000000    -0.469219   
O111     O      0.759460000000     0.575880000000     0.034890000000    -0.44249    
O112     O      0.749010000000     0.682510000000     0.208830000000    -0.422198   
O113     O      0.621060000000     0.469810000000     0.196760000000    -0.455915   
O114     O      0.748150000000     0.754650000000     0.005910000000    -0.421089   
O115     O      0.781540000000     0.773770000000     0.105830000000    -0.413189   
O116     O      0.706040000000     0.496660000000     0.129590000000    -0.481524   
O117     O      0.787610000000     0.674560000000     0.076160000000    -0.433519   
O118     O      0.651410000000     0.589540000000     0.247340000000    -0.43772    
O119     O      0.646870000000     0.593680000000     0.106820000000    -0.535509   
O120     O      0.538160000000     0.469730000000     0.513730000000    -0.45563    
O121     O      0.616870000000     0.731820000000     0.608500000000    -0.37782    
O122     O      0.475020000000     0.529490000000     0.637670000000    -0.419102   
O123     O      0.769210000000     0.655610000000     0.532420000000    -0.383273   
O124     O      0.537930000000     0.605460000000     0.563180000000    -0.419478   
O125     O      0.664570000000     0.580220000000     0.485900000000    -0.455495   
O126     O      0.686940000000     0.712410000000     0.549600000000    -0.432987   
O127     O      0.491310000000     0.426120000000     0.605400000000    -0.472876   
O128     O      0.737740000000     0.537140000000     0.577720000000    -0.450735   
O129     O      0.562700000000     0.632140000000     0.693940000000    -0.38758    
O130     O      0.602450000000     0.453000000000     0.694750000000    -0.445144   
O131     O      0.806810000000     0.744100000000     0.629120000000    -0.364004   
O132     O      0.705570000000     0.700900000000     0.682860000000    -0.448108   
O133     O      0.612460000000     0.425340000000     0.599690000000    -0.459648   
O134     O      0.764650000000     0.610660000000     0.655710000000    -0.40611    
O135     O      0.591840000000     0.557400000000     0.735050000000    -0.451263   
O136     O      0.626380000000     0.564260000000     0.610420000000    -0.600826   


