data_structure

_audit_creation_method RASPA-1.0
_audit_creation_date 2023-6-5
_audit_author_name 'Poobodin Mano'

_cell_length_a    21.4237
_cell_length_b    21.4689
_cell_length_c    21.46
_cell_angle_alpha 89.2564
_cell_angle_beta  89.2563
_cell_angle_gamma 89.2563
_cell_volume      9867.91

_symmetry_cell_setting          triclinic
_symmetry_space_group_name_Hall 'P 1'
_symmetry_space_group_name_H-M  'P 1'
_symmetry_Int_Tables_number     1

_symmetry_equiv_pos_as_xyz 'x,y,z'

loop_
_atom_site_label
_atom_site_type_symbol
_atom_site_fract_x
_atom_site_fract_y
_atom_site_fract_z
_atom_site_charge
C1       C      0.816890000000     0.968460000000     0.316940000000     0.375087   
C2       C      0.972760000000     0.132580000000     0.634350000000     0.377777   
C3       C      0.961520000000     0.120720000000     0.309640000000     0.385713   
C4       C      0.821460000000     0.964650000000     0.641700000000     0.388768   
C5       C      0.973560000000     0.824040000000     0.645480000000     0.386025   
C6       C      0.126040000000     0.968610000000     0.313550000000     0.388006   
C7       C      0.129490000000     0.982240000000     0.637160000000     0.379418   
C8       C      0.975960000000     0.814060000000     0.319530000000     0.372647   
C9       C      0.960620000000     0.305100000000     0.127920000000     0.389942   
C10      C      0.820210000000     0.634380000000     0.973500000000     0.38705    
C11      C      0.818930000000     0.309560000000     0.975220000000     0.373676   
C12      C      0.973430000000     0.628890000000     0.138020000000     0.3782     
C13      C      0.128300000000     0.633330000000     0.987670000000     0.380065   
C14      C      0.975920000000     0.313340000000     0.820120000000     0.374398   
C15      C      0.972680000000     0.638270000000     0.828290000000     0.385085   
C16      C      0.128440000000     0.309620000000     0.967920000000     0.389265   
C17      C      0.637430000000     0.124060000000     0.973530000000     0.375429   
C18      C      0.309070000000     0.967090000000     0.129020000000     0.390424   
C19      C      0.635460000000     0.968400000000     0.131380000000     0.37459    
C20      C      0.311290000000     0.125480000000     0.968440000000     0.387803   
C21      C      0.311200000000     0.978000000000     0.822170000000     0.378011   
C22      C      0.634740000000     0.816090000000     0.970670000000     0.389755   
C23      C      0.309510000000     0.818700000000     0.984180000000     0.37874    
C24      C      0.636660000000     0.960000000000     0.823590000000     0.388987   
C25      C      0.788830000000     0.741350000000     0.976630000000     0.0276782  
C26      C      0.714700000000     0.663930000000     0.958280000000     0.0118843  
C27      C      0.741600000000     0.786590000000     0.974860000000     0.0272481  
C28      C      0.667310000000     0.708710000000     0.955580000000     0.0655808  
C29      C      0.712510000000     0.277120000000     0.976890000000     0.024745   
C30      C      0.792450000000     0.201520000000     0.971890000000     0.014185   
C31      C      0.667840000000     0.230200000000     0.976250000000     0.0249896  
C32      C      0.747860000000     0.153850000000     0.970440000000     0.0643271  
C33      C      0.202080000000     0.787700000000     0.979410000000     0.0277791  
C34      C      0.280540000000     0.712820000000     0.998540000000     0.0116146  
C35      C      0.157160000000     0.740460000000     0.980750000000     0.0266605  
C36      C      0.236200000000     0.665480000000     0.000980000000     0.0664132  
C37      C      0.204040000000     0.156240000000     0.974580000000     0.0291455  
C38      C      0.280950000000     0.230580000000     0.950910000000     0.0157722  
C39      C      0.158390000000     0.203090000000     0.973630000000     0.0275769  
C40      C      0.235610000000     0.277520000000     0.948440000000     0.0672476  
C41      C      0.790620000000     0.968190000000     0.748910000000     0.0285819  
C42      C      0.717250000000     0.944050000000     0.672410000000     0.0157188  
C43      C      0.743580000000     0.965760000000     0.794390000000     0.0279297  
C44      C      0.670230000000     0.940440000000     0.717500000000     0.0671513  
C45      C      0.203710000000     0.976320000000     0.791330000000     0.027322   
C46      C      0.282860000000     0.988070000000     0.715610000000     0.0121563  
C47      C      0.158740000000     0.977820000000     0.744200000000     0.0264735  
C48      C      0.238510000000     0.990280000000     0.668230000000     0.0649997  
C49      C      0.232200000000     0.970580000000     0.281200000000     0.0275264  
C50      C      0.153840000000     0.960870000000     0.206140000000     0.0147215  
C51      C      0.277440000000     0.969810000000     0.234550000000     0.0254865  
C52      C      0.199150000000     0.959380000000     0.158630000000     0.0665241  
C53      C      0.710340000000     0.970840000000     0.284680000000     0.0260317  
C54      C      0.790240000000     0.965170000000     0.209050000000     0.0142032  
C55      C      0.665650000000     0.970730000000     0.237700000000     0.0235003  
C56      C      0.745710000000     0.964090000000     0.161390000000     0.0640068  
C57      C      0.976580000000     0.206450000000     0.788410000000     0.0269662  
C58      C      0.973350000000     0.286270000000     0.712720000000     0.011832   
C59      C      0.975480000000     0.161840000000     0.741200000000     0.0260901  
C60      C      0.971830000000     0.242170000000     0.665060000000     0.0631601  
C61      C      0.971980000000     0.671580000000     0.722500000000     0.0291501  
C62      C      0.972290000000     0.746630000000     0.801350000000     0.0153177  
C63      C      0.972240000000     0.718460000000     0.677500000000     0.0249223  
C64      C      0.972120000000     0.794600000000     0.756200000000     0.0660805  
C65      C      0.976700000000     0.782680000000     0.212470000000     0.0267101  
C66      C      0.973420000000     0.706770000000     0.292070000000     0.010479   
C67      C      0.975720000000     0.735650000000     0.167630000000     0.0263724  
C68      C      0.971860000000     0.659290000000     0.247750000000     0.0660723  
C69      C      0.969000000000     0.150970000000     0.202270000000     0.0283926  
C70      C      0.937190000000     0.223810000000     0.277760000000     0.0152998  
C71      C      0.968220000000     0.198090000000     0.156720000000     0.0281679  
C72      C      0.934200000000     0.270580000000     0.232450000000     0.0661186  
H1       H      0.874000000000     0.068120000000     0.564730000000     0.209735   
H2       H      0.065450000000     0.069410000000     0.378890000000     0.207916   
H3       H      0.072510000000     0.881590000000     0.567820000000     0.209815   
H4       H      0.878430000000     0.871480000000     0.389290000000     0.205082   
H5       H      0.077240000000     0.178050000000     0.479760000000     0.130551   
H6       H      0.180960000000     0.092300000000     0.482350000000     0.191479   
H7       H      0.168790000000     0.866550000000     0.445080000000     0.148519   
H8       H      0.082780000000     0.762550000000     0.523760000000     0.199836   
H9       H      0.868400000000     0.767350000000     0.481780000000     0.126891   
H10      H      0.762750000000     0.855050000000     0.476310000000     0.186631   
H11      H      0.778790000000     0.079280000000     0.443620000000     0.149925   
H12      H      0.862310000000     0.181850000000     0.516420000000     0.200925   
H13      H      0.088320000000     0.766740000000     0.445980000000     0.203923   
H14      H      0.714410000000     0.916410000000     0.484330000000     0.204257   
H15      H      0.863060000000     0.186760000000     0.438600000000     0.204566   
H16      H      0.226250000000     0.037120000000     0.449950000000     0.204929   
H17      H      0.875590000000     0.557970000000     0.075180000000     0.207699   
H18      H      0.878390000000     0.382270000000     0.878850000000     0.206584   
H19      H      0.070830000000     0.562720000000     0.885370000000     0.21449    
H20      H      0.068790000000     0.373840000000     0.073620000000     0.206455   
H21      H      0.773930000000     0.474830000000     0.864540000000     0.127177   
H22      H      0.863380000000     0.477040000000     0.764840000000     0.187533   
H23      H      0.081260000000     0.436150000000     0.779550000000     0.146299   
H24      H      0.169890000000     0.457210000000     0.858540000000     0.20277    
H25      H      0.172550000000     0.477550000000     0.092750000000     0.129413   
H26      H      0.087040000000     0.460920000000     0.187980000000     0.188292   
H27      H      0.853630000000     0.447410000000     0.162210000000     0.146809   
H28      H      0.758690000000     0.512980000000     0.079580000000     0.197734   
H29      H      0.213590000000     0.503990000000     0.901260000000     0.207391   
H30      H      0.025550000000     0.451720000000     0.235930000000     0.205594   
H31      H      0.759170000000     0.435050000000     0.081670000000     0.203001   
H32      H      0.926720000000     0.480410000000     0.718440000000     0.203564   
H33      H      0.383350000000     0.068000000000     0.070090000000     0.210463   
H34      H      0.565610000000     0.873090000000     0.074490000000     0.203065   
H35      H      0.384900000000     0.875870000000     0.882250000000     0.213626   
H36      H      0.568080000000     0.065810000000     0.877300000000     0.205133   
H37      H      0.476940000000     0.860590000000     0.181850000000     0.127833   
H38      H      0.495080000000     0.758580000000     0.092080000000     0.1858     
H39      H      0.503660000000     0.777710000000     0.869800000000     0.144861   
H40      H      0.496700000000     0.851500000000     0.782060000000     0.199551   
H41      H      0.480510000000     0.084170000000     0.774740000000     0.12684    
H42      H      0.483310000000     0.185070000000     0.860050000000     0.187391   
H43      H      0.509610000000     0.165860000000     0.080500000000     0.148964   
H44      H      0.428930000000     0.073840000000     0.189010000000     0.200214   
H45      H      0.439390000000     0.888070000000     0.743430000000     0.204249   
H46      H      0.472350000000     0.231290000000     0.921580000000     0.203965   
H47      H      0.506310000000     0.081180000000     0.181210000000     0.204351   
H48      H      0.459330000000     0.715150000000     0.039400000000     0.204124   
H49      H      0.755170000000     0.834410000000     0.981830000000     0.0378555  
H50      H      0.836140000000     0.756380000000     0.984690000000     0.0384456  
H51      H      0.702240000000     0.615920000000     0.950000000000     0.046482   
H52      H      0.560180000000     0.662970000000     0.984790000000     0.0363212  
H53      H      0.619390000000     0.245310000000     0.978580000000     0.0350936  
H54      H      0.695750000000     0.324910000000     0.979350000000     0.0377043  
H55      H      0.841470000000     0.188280000000     0.969510000000     0.0453792  
H56      H      0.786740000000     0.066290000000     0.899350000000     0.0360861  
H57      H      0.109100000000     0.754470000000     0.972750000000     0.0398002  
H58      H      0.186370000000     0.835210000000     0.970840000000     0.0390254  
H59      H      0.328820000000     0.699670000000     0.006950000000     0.0421733  
H60      H      0.263650000000     0.584210000000     0.085800000000     0.0391327  
H61      H      0.110750000000     0.189500000000     0.983980000000     0.0387476  
H62      H      0.189410000000     0.109020000000     0.984940000000     0.0376116  
H63      H      0.328830000000     0.243090000000     0.939970000000     0.0418639  
H64      H      0.257380000000     0.353530000000     0.857220000000     0.0321994  
H65      H      0.756710000000     0.975010000000     0.841940000000     0.0376186  
H66      H      0.837530000000     0.978890000000     0.763440000000     0.0390318  
H67      H      0.705190000000     0.933220000000     0.624810000000     0.0421518  
H68      H      0.598410000000     0.847840000000     0.697440000000     0.031674   
H69      H      0.110360000000     0.973300000000     0.758750000000     0.0379432  
H70      H      0.187660000000     0.970880000000     0.839190000000     0.0385405  
H71      H      0.331560000000     0.992960000000     0.702060000000     0.043866   
H72      H      0.283470000000     0.948070000000     0.565000000000     0.0421356  
H73      H      0.325400000000     0.974250000000     0.249270000000     0.0374577  
H74      H      0.247930000000     0.975010000000     0.328750000000     0.0320308  
H75      H      0.105240000000     0.956420000000     0.193440000000     0.0452915  
H76      H      0.158270000000     0.001960000000     0.053930000000     0.0416317  
H77      H      0.617190000000     0.973490000000     0.252710000000     0.0390956  
H78      H      0.693660000000     0.973430000000     0.332510000000     0.0348004  
H79      H      0.839240000000     0.962320000000     0.195780000000     0.0453393  
H80      H      0.783870000000     0.892630000000     0.073740000000     0.0359152  
H81      H      0.976680000000     0.113330000000     0.755890000000     0.0405063  
H82      H      0.978300000000     0.189910000000     0.836310000000     0.0394126  
H83      H      0.972130000000     0.335180000000     0.699280000000     0.0390851  
H84      H      0.025350000000     0.283140000000     0.564920000000     0.0461145  
H85      H      0.972460000000     0.703400000000     0.629460000000     0.0401008  
H86      H      0.971890000000     0.623940000000     0.706310000000     0.0369358  
H87      H      0.972020000000     0.759310000000     0.850140000000     0.0445991  
H88      H      0.029720000000     0.891430000000     0.793150000000     0.0393428  
H89      H      0.977080000000     0.750470000000     0.119150000000     0.0404797  
H90      H      0.978450000000     0.830610000000     0.196080000000     0.0392601  
H91      H      0.971970000000     0.693190000000     0.340960000000     0.0449186  
H92      H      0.903480000000     0.568610000000     0.286460000000     0.0430309  
H93      H      0.982120000000     0.185500000000     0.109730000000     0.0387488  
H94      H      0.982900000000     0.104370000000     0.188410000000     0.0386997  
H95      H      0.922420000000     0.235390000000     0.324860000000     0.0397749  
H96      H      0.942820000000     0.379900000000     0.279490000000     0.0364703  
N1       N      0.775010000000     0.679900000000     0.969750000000    -0.171571   
N2       N      0.680390000000     0.770580000000     0.966580000000    -0.178926   
N3       N      0.774960000000     0.263030000000     0.974840000000    -0.16791    
N4       N      0.684490000000     0.168140000000     0.973300000000    -0.174194   
N5       N      0.264020000000     0.773710000000     0.987260000000    -0.167629   
N6       N      0.173670000000     0.678860000000     0.990200000000    -0.17554    
N7       N      0.265470000000     0.170400000000     0.964860000000    -0.171228   
N8       N      0.173970000000     0.264150000000     0.962750000000    -0.177849   
N9       N      0.776870000000     0.959280000000     0.687690000000    -0.171088   
N10      N      0.682770000000     0.954740000000     0.778710000000    -0.178114   
N11      N      0.265940000000     0.980720000000     0.776950000000    -0.168425   
N12      N      0.175410000000     0.983800000000     0.682240000000    -0.174264   
N13      N      0.170380000000     0.966750000000     0.267080000000    -0.172728   
N14      N      0.261730000000     0.965180000000     0.172990000000    -0.177802   
N15      N      0.772770000000     0.968310000000     0.270550000000    -0.168737   
N16      N      0.682350000000     0.967650000000     0.175630000000    -0.173745   
N17      N      0.975550000000     0.268790000000     0.774240000000    -0.168793   
N18      N      0.973280000000     0.178810000000     0.679140000000    -0.174488   
N19      N      0.972320000000     0.685400000000     0.784450000000    -0.170535   
N20      N      0.972630000000     0.780290000000     0.693300000000    -0.176252   
N21      N      0.975650000000     0.768300000000     0.274820000000    -0.167833   
N22      N      0.973580000000     0.673580000000     0.184380000000    -0.17399    
N23      N      0.956020000000     0.164650000000     0.263150000000    -0.171479   
N24      N      0.953690000000     0.258560000000     0.172040000000    -0.178281   
O1       O      0.797730000000     0.968330000000     0.374630000000    -0.360001   
O2       O      0.875450000000     0.968420000000     0.300800000000    -0.348328   
O3       O      0.973860000000     0.148840000000     0.576110000000    -0.358499   
O4       O      0.971540000000     0.074590000000     0.652410000000    -0.346783   
O5       O      0.960870000000     0.140290000000     0.366480000000    -0.362516   
O6       O      0.967550000000     0.062730000000     0.294800000000    -0.351863   
O7       O      0.803220000000     0.960630000000     0.584640000000    -0.358322   
O8       O      0.878830000000     0.973330000000     0.657250000000    -0.351995   
O9       O      0.771820000000     0.056080000000     0.483230000000    -0.340185   
O10      O      0.756240000000     0.899470000000     0.480090000000    -0.512283   
O11      O      0.880880000000     0.170660000000     0.476780000000    -0.513162   
O12      O      0.036560000000     0.192150000000     0.462920000000    -0.331277   
O13      O      0.900050000000     0.039930000000     0.413220000000    -0.468654   
O14      O      0.900440000000     0.042690000000     0.538270000000    -0.610322   
O15      O      0.971740000000     0.804040000000     0.588720000000    -0.359936   
O16      O      0.976560000000     0.882370000000     0.658640000000    -0.351201   
O17      O      0.145070000000     0.972470000000     0.370310000000    -0.371208   
O18      O      0.067850000000     0.966890000000     0.298410000000    -0.35472    
O19      O      0.146480000000     0.982700000000     0.579170000000    -0.35281    
O20      O      0.071270000000     0.979120000000     0.654560000000    -0.345901   
O21      O      0.975680000000     0.796750000000     0.377820000000    -0.357334   
O22      O      0.975570000000     0.872000000000     0.301620000000    -0.347075   
O23      O      0.067110000000     0.777870000000     0.484350000000    -0.514904   
O24      O      0.911760000000     0.751340000000     0.485590000000    -0.326727   
O25      O      0.178060000000     0.893450000000     0.480840000000    -0.338772   
O26      O      0.186560000000     0.050230000000     0.467610000000    -0.515022   
O27      O      0.045870000000     0.906000000000     0.540630000000    -0.609985   
O28      O      0.045790000000     0.902630000000     0.416070000000    -0.469082   
O29      O      0.904810000000     0.902040000000     0.547620000000    -0.470237   
O30      O      0.041000000000     0.043860000000     0.407150000000    -0.620094   
O31      O      0.903600000000     0.898010000000     0.414590000000    -0.626516   
O32      O      0.042840000000     0.048320000000     0.540540000000    -0.477307   
O33      O      0.962920000000     0.361810000000     0.146990000000    -0.364746   
O34      O      0.966580000000     0.290040000000     0.069870000000    -0.352629   
O35      O      0.802480000000     0.577150000000     0.969900000000    -0.364005   
O36      O      0.877660000000     0.650560000000     0.980320000000    -0.354022   
O37      O      0.799480000000     0.367140000000     0.975390000000    -0.356388   
O38      O      0.877600000000     0.293760000000     0.974900000000    -0.346057   
O39      O      0.975790000000     0.570720000000     0.154240000000    -0.350007   
O40      O      0.971380000000     0.646930000000     0.079990000000    -0.345099   
O41      O      0.885830000000     0.474530000000     0.179750000000    -0.339011   
O42      O      0.042440000000     0.458180000000     0.194430000000    -0.513923   
O43      O      0.773280000000     0.473680000000     0.063020000000    -0.516042   
O44      O      0.755490000000     0.472840000000     0.907050000000    -0.327006   
O45      O      0.902590000000     0.407180000000     0.046990000000    -0.468536   
O46      O      0.901900000000     0.531860000000     0.049240000000    -0.610787   
O47      O      0.145950000000     0.575500000000     0.987780000000    -0.358994   
O48      O      0.069980000000     0.650170000000     0.983930000000    -0.345669   
O49      O      0.975060000000     0.371560000000     0.802850000000    -0.363716   
O50      O      0.976200000000     0.295400000000     0.878090000000    -0.346524   
O51      O      0.971190000000     0.581550000000     0.808560000000    -0.356533   
O52      O      0.974800000000     0.652620000000     0.886670000000    -0.351047   
O53      O      0.145930000000     0.366630000000     0.972220000000    -0.357964   
O54      O      0.070480000000     0.293170000000     0.970220000000    -0.354004   
O55      O      0.176490000000     0.479430000000     0.896700000000    -0.5133     
O56      O      0.189350000000     0.461700000000     0.052710000000    -0.330124   
O57      O      0.064460000000     0.479320000000     0.780190000000    -0.342812   
O58      O      0.908230000000     0.478260000000     0.759720000000    -0.512541   
O59      O      0.044690000000     0.535440000000     0.910220000000    -0.610773   
O60      O      0.045740000000     0.410820000000     0.907390000000    -0.46949    
O61      O      0.044170000000     0.535970000000     0.052400000000    -0.477047   
O62      O      0.903660000000     0.407790000000     0.905060000000    -0.626354   
O63      O      0.043760000000     0.401980000000     0.048500000000    -0.619978   
O64      O      0.903520000000     0.541090000000     0.908470000000    -0.470984   
O65      O      0.579810000000     0.143800000000     0.972050000000    -0.361063   
O66      O      0.652040000000     0.065380000000     0.975580000000    -0.345343   
O67      O      0.366230000000     0.964740000000     0.148330000000    -0.360151   
O68      O      0.294760000000     0.972320000000     0.071110000000    -0.355452   
O69      O      0.577660000000     0.968050000000     0.150770000000    -0.356148   
O70      O      0.650510000000     0.969620000000     0.072810000000    -0.346179   
O71      O      0.368800000000     0.143410000000     0.965250000000    -0.356397   
O72      O      0.294960000000     0.067980000000     0.974900000000    -0.353576   
O73      O      0.468210000000     0.169510000000     0.060720000000    -0.339919   
O74      O      0.477170000000     0.190100000000     0.904390000000    -0.51237    
O75      O      0.468400000000     0.059450000000     0.171870000000    -0.513516   
O76      O      0.473060000000     0.903420000000     0.198180000000    -0.326154   
O77      O      0.535720000000     0.041300000000     0.045890000000    -0.468693   
O78      O      0.410620000000     0.042010000000     0.045010000000    -0.604855   
O79      O      0.369140000000     0.979900000000     0.803950000000    -0.358696   
O80      O      0.294350000000     0.973490000000     0.880320000000    -0.346713   
O81      O      0.577310000000     0.798980000000     0.974120000000    -0.368458   
O82      O      0.651380000000     0.873770000000     0.972670000000    -0.353077   
O83      O      0.367230000000     0.800130000000     0.987470000000    -0.355176   
O84      O      0.293220000000     0.876870000000     0.977940000000    -0.344591   
O85      O      0.579470000000     0.963730000000     0.805590000000    -0.359873   
O86      O      0.652660000000     0.963290000000     0.881390000000    -0.352488   
O87      O      0.468690000000     0.886810000000     0.777290000000    -0.513604   
O88      O      0.479570000000     0.041790000000     0.757140000000    -0.326577   
O89      O      0.466170000000     0.769610000000     0.895940000000    -0.338376   
O90      O      0.476260000000     0.754580000000     0.051670000000    -0.513697   
O91      O      0.411530000000     0.901180000000     0.907320000000    -0.615494   
O92      O      0.535620000000     0.900150000000     0.907800000000    -0.468759   
O93      O      0.407080000000     0.043610000000     0.903890000000    -0.47335    
O94      O      0.538920000000     0.899230000000     0.048970000000    -0.622902   
O95      O      0.540730000000     0.041120000000     0.903550000000    -0.623643   
O96      O      0.405250000000     0.901150000000     0.049800000000    -0.471948   
S1       S      0.593640000000     0.680750000000     0.932870000000    -0.0315837  
S2       S      0.778690000000     0.077660000000     0.961580000000    -0.021175   
S3       S      0.266110000000     0.591010000000     0.022250000000    -0.0296075  
S4       S      0.262000000000     0.350830000000     0.920820000000    -0.026476   
S5       S      0.598130000000     0.911470000000     0.691570000000    -0.0277332  
S6       S      0.269750000000     0.003920000000     0.592500000000    -0.0284656  
S7       S      0.170870000000     0.946000000000     0.082830000000    -0.0225816  
S8       S      0.776690000000     0.954910000000     0.085230000000    -0.020788   
S9       S      0.966470000000     0.274180000000     0.588780000000    -0.0361188  
S10      S      0.969930000000     0.871270000000     0.785560000000    -0.0251458  
S11      S      0.965310000000     0.583030000000     0.279470000000    -0.0328961  
S12      S      0.898490000000     0.341300000000     0.256460000000    -0.0329859  
Zr1      Zr     0.844460000000     0.967950000000     0.478970000000     1.29622    
Zr2      Zr     0.970280000000     0.101290000000     0.472970000000     1.29732    
Zr3      Zr     0.975560000000     0.844290000000     0.481670000000     1.29366    
Zr4      Zr     0.101480000000     0.978130000000     0.475210000000     1.29854    
Zr5      Zr     0.972220000000     0.969350000000     0.359440000000     1.26585    
Zr6      Zr     0.974160000000     0.976420000000     0.595190000000     1.25899    
Zr7      Zr     0.973590000000     0.467660000000     0.106850000000     1.29736    
Zr8      Zr     0.845090000000     0.471940000000     0.975610000000     1.29555    
Zr9      Zr     0.102140000000     0.470920000000     0.981540000000     1.30033    
Zr10     Zr     0.973970000000     0.475380000000     0.849970000000     1.2948     
Zr11     Zr     0.973900000000     0.353400000000     0.975480000000     1.26317    
Zr12     Zr     0.973640000000     0.589670000000     0.981550000000     1.25824    
Zr13     Zr     0.474100000000     0.099790000000     0.972130000000     1.29236    
Zr14     Zr     0.472350000000     0.969790000000     0.105400000000     1.2923     
Zr15     Zr     0.473980000000     0.972910000000     0.847920000000     1.29903    
Zr16     Zr     0.472400000000     0.842840000000     0.981260000000     1.2984     
Zr17     Zr     0.591080000000     0.969860000000     0.976570000000     1.26516    
Zr18     Zr     0.355350000000     0.972150000000     0.976000000000     1.26274    


