data_structure

_audit_creation_method RASPA-1.0
_audit_creation_date 2023-6-5
_audit_author_name 'Poobodin Mano'

_cell_length_a    27.5232
_cell_length_b    27.4713
_cell_length_c    27.5294
_cell_angle_alpha 89.2565
_cell_angle_beta  89.2563
_cell_angle_gamma 89.2563
_cell_volume      20809.7

_symmetry_cell_setting          triclinic
_symmetry_space_group_name_Hall 'P 1'
_symmetry_space_group_name_H-M  'P 1'
_symmetry_Int_Tables_number     1

_symmetry_equiv_pos_as_xyz 'x,y,z'

loop_
_atom_site_label
_atom_site_type_symbol
_atom_site_fract_x
_atom_site_fract_y
_atom_site_fract_z
_atom_site_charge
C1       C      0.859860000000     0.976410000000     0.356180000000     0.378249   
C2       C      0.982240000000     0.101860000000     0.606470000000     0.378958   
C3       C      0.966480000000     0.099570000000     0.353610000000     0.391153   
C4       C      0.864120000000     0.975330000000     0.610190000000     0.391643   
C5       C      0.991110000000     0.862240000000     0.608310000000     0.388888   
C6       C      0.099040000000     0.985220000000     0.351830000000     0.387409   
C7       C      0.102810000000     0.984080000000     0.605490000000     0.380386   
C8       C      0.986070000000     0.860240000000     0.355400000000     0.376992   
C9       C      0.977100000000     0.353850000000     0.101060000000     0.387002   
C10      C      0.864070000000     0.610180000000     0.974270000000     0.38571    
C11      C      0.860300000000     0.356140000000     0.982640000000     0.377092   
C12      C      0.981560000000     0.607780000000     0.100910000000     0.381377   
C13      C      0.103290000000     0.605700000000     0.988130000000     0.381454   
C14      C      0.985100000000     0.353260000000     0.862750000000     0.382942   
C15      C      0.982690000000     0.608210000000     0.861440000000     0.388904   
C16      C      0.100030000000     0.353360000000     0.976040000000     0.390302   
C17      C      0.605580000000     0.103850000000     0.976870000000     0.378333   
C18      C      0.352120000000     0.974240000000     0.098460000000     0.390446   
C19      C      0.604900000000     0.983810000000     0.103380000000     0.374091   
C20      C      0.352190000000     0.100030000000     0.973390000000     0.388291   
C21      C      0.356930000000     0.982780000000     0.858330000000     0.378883   
C22      C      0.609570000000     0.863060000000     0.986840000000     0.387489   
C23      C      0.355960000000     0.860100000000     0.982830000000     0.378746   
C24      C      0.609650000000     0.977670000000     0.862900000000     0.386112   
C25      C      0.640970000000     0.783600000000     0.009680000000     0.147631   
C26      C      0.690480000000     0.840860000000     0.966960000000     0.0721544  
C27      C      0.678010000000     0.748480000000     0.005270000000    -0.123635   
C28      C      0.746730000000     0.673300000000     0.966250000000    -0.0834413  
C29      C      0.727920000000     0.806520000000     0.962620000000    -0.0958894  
C30      C      0.759650000000     0.721370000000     0.975370000000     0.0263467  
C31      C      0.721440000000     0.759410000000     0.980930000000     0.04847    
C32      C      0.782180000000     0.636850000000     0.965180000000     0.0645302  
C33      C      0.843610000000     0.694710000000     0.978740000000     0.0643785  
C34      C      0.808850000000     0.732100000000     0.980730000000    -0.0840645  
C35      C      0.596970000000     0.769880000000     0.040260000000    -0.213826   
C36      C      0.634560000000     0.184650000000     0.954720000000     0.143433   
C37      C      0.686020000000     0.127430000000     0.995130000000     0.0684226  
C38      C      0.671180000000     0.219850000000     0.957370000000    -0.121104   
C39      C      0.741410000000     0.296530000000     0.987850000000    -0.081499   
C40      C      0.722910000000     0.161930000000     0.997830000000    -0.093833   
C41      C      0.754140000000     0.247260000000     0.982300000000     0.0253785  
C42      C      0.715680000000     0.209170000000     0.979420000000     0.0471917  
C43      C      0.777210000000     0.332180000000     0.987980000000     0.0631294  
C44      C      0.838830000000     0.271920000000     0.979450000000     0.0640087  
C45      C      0.803790000000     0.235290000000     0.978500000000    -0.0816457  
C46      C      0.589640000000     0.198880000000     0.926390000000    -0.212421   
C47      C      0.182400000000     0.634270000000     0.013020000000     0.146893   
C48      C      0.127840000000     0.686610000000     0.970250000000     0.0685343  
C49      C      0.217800000000     0.670850000000     0.011060000000    -0.121437   
C50      C      0.296380000000     0.741060000000     0.981620000000    -0.0823811  
C51      C      0.162560000000     0.723420000000     0.968130000000    -0.0933765  
C52      C      0.246990000000     0.754040000000     0.985430000000     0.0257912  
C53      C      0.208610000000     0.715720000000     0.988040000000     0.0466575  
C54      C      0.332090000000     0.776810000000     0.980990000000     0.0642761  
C55      C      0.271780000000     0.838800000000     0.985890000000     0.0646668  
C56      C      0.235080000000     0.803830000000     0.987350000000    -0.0812773  
C57      C      0.194720000000     0.588760000000     0.042240000000    -0.217787   
C58      C      0.131570000000     0.281920000000     0.937220000000     0.119397   
C59      C      0.170370000000     0.315830000000     0.005860000000     0.0735212  
C60      C      0.165110000000     0.242910000000     0.937700000000    -0.110529   
C61      C      0.289620000000     0.218130000000     0.970400000000    -0.086379   
C62      C      0.204840000000     0.278620000000     0.005970000000    -0.0930659  
C63      C      0.241020000000     0.204200000000     0.969910000000     0.0297811  
C64      C      0.202330000000     0.241670000000     0.971840000000     0.0428133  
C65      C      0.326200000000     0.182830000000     0.970830000000     0.0685374  
C66      C      0.267650000000     0.120170000000     0.969810000000     0.067421   
C67      C      0.230020000000     0.154740000000     0.968820000000    -0.0851317  
C68      C      0.100370000000     0.289050000000     0.892320000000    -0.12336    
C69      C      0.838850000000     0.995630000000     0.692240000000     0.148762   
C70      C      0.787650000000     0.950940000000     0.640200000000     0.0749259  
C71      C      0.803420000000     0.992670000000     0.729230000000    -0.125899   
C72      C      0.731130000000     0.965190000000     0.808190000000    -0.0830879  
C73      C      0.752200000000     0.947750000000     0.676390000000    -0.0977555  
C74      C      0.720530000000     0.969760000000     0.758700000000     0.0258628  
C75      C      0.759610000000     0.969190000000     0.721300000000     0.0510594  
C76      C      0.693720000000     0.968170000000     0.842710000000     0.066057   
C77      C      0.635720000000     0.978890000000     0.780330000000     0.0644631  
C78      C      0.672170000000     0.976720000000     0.745050000000    -0.0829886  
C79      C      0.883010000000     0.026140000000     0.702320000000    -0.216867   
C80      C      0.128690000000     0.961780000000     0.687300000000     0.145655   
C81      C      0.181800000000     0.003110000000     0.632310000000     0.0715145  
C82      C      0.164630000000     0.963210000000     0.723340000000    -0.121296   
C83      C      0.236420000000     0.988430000000     0.801610000000    -0.0812248  
C84      C      0.217810000000     0.004750000000     0.667600000000    -0.0931378  
C85      C      0.248360000000     0.985040000000     0.751980000000     0.0256822  
C86      C      0.209710000000     0.984740000000     0.713970000000     0.0470378  
C87      C      0.272960000000     0.987330000000     0.836620000000     0.0649288  
C88      C      0.333390000000     0.980920000000     0.775030000000     0.0636237  
C89      C      0.297770000000     0.981200000000     0.739180000000    -0.0811649  
C90      C      0.083150000000     0.933530000000     0.699770000000    -0.21661    
C91      C      0.320840000000     0.947780000000     0.176710000000     0.151031   
C92      C      0.270880000000     0.992080000000     0.121070000000     0.0714095  
C93      C      0.283940000000     0.950910000000     0.212020000000    -0.126555   
C94      C      0.153450000000     0.975130000000     0.230150000000    -0.0835636  
C95      C      0.233550000000     0.995070000000     0.155540000000    -0.0974369  
C96      C      0.202730000000     0.980520000000     0.240390000000     0.0264442  
C97      C      0.240430000000     0.975490000000     0.201990000000     0.0505081  
C98      C      0.119030000000     0.977760000000     0.267690000000     0.066756   
C99      C      0.181030000000     0.991730000000     0.324760000000     0.0659359  
C100     C      0.216190000000     0.989800000000     0.288160000000    -0.0843559  
C101     C      0.365030000000     0.916920000000     0.189270000000    -0.220205   
C102     C      0.835490000000     0.959650000000     0.273170000000     0.145381   
C103     C      0.779130000000     0.992310000000     0.330650000000     0.0676957  
C104     C      0.799320000000     0.962210000000     0.237230000000    -0.121223   
C105     C      0.725140000000     0.989920000000     0.160470000000    -0.0807182  
C106     C      0.742930000000     0.995110000000     0.295480000000    -0.0948201  
C107     C      0.713680000000     0.981960000000     0.209820000000     0.0244188  
C108     C      0.752500000000     0.980100000000     0.247860000000     0.0474154  
C109     C      0.688550000000     0.990320000000     0.125440000000     0.0631781  
C110     C      0.628840000000     0.976670000000     0.186480000000     0.0609727  
C111     C      0.664570000000     0.975270000000     0.222290000000    -0.0805693  
C112     C      0.883490000000     0.935830000000     0.258900000000    -0.21696    
C113     C      0.001380000000     0.268650000000     0.839820000000     0.201019   
C114     C      0.972760000000     0.327430000000     0.782280000000     0.0710361  
C115     C      0.001420000000     0.233020000000     0.803180000000    -0.144233   
C116     C      0.978650000000     0.157030000000     0.727800000000    -0.0803854  
C117     C      0.971560000000     0.292360000000     0.746140000000    -0.100497   
C118     C      0.985860000000     0.206520000000     0.716760000000     0.021459   
C119     C      0.986210000000     0.244320000000     0.755860000000     0.0561156  
C120     C      0.978410000000     0.122510000000     0.690740000000     0.0619121  
C121     C      0.990730000000     0.184320000000     0.631430000000     0.0623     
C122     C      0.992500000000     0.219540000000     0.667620000000    -0.0800662  
C123     C      0.020670000000     0.252340000000     0.889250000000    -0.405707   
C124     C      0.016960000000     0.783150000000     0.638100000000     0.149041   
C125     C      0.975250000000     0.839240000000     0.689760000000     0.0705356  
C126     C      0.014460000000     0.747560000000     0.674840000000    -0.123994   
C127     C      0.977730000000     0.671190000000     0.743840000000    -0.0845698  
C128     C      0.972810000000     0.804450000000     0.726870000000    -0.0964345  
C129     C      0.987240000000     0.719150000000     0.756940000000     0.0279393  
C130     C      0.991460000000     0.757670000000     0.719150000000     0.0484521  
C131     C      0.976090000000     0.634690000000     0.779230000000     0.0686316  
C132     C      0.990960000000     0.692200000000     0.840690000000     0.0678084  
C133     C      0.993440000000     0.729570000000     0.806060000000    -0.0851551  
C134     C      0.046450000000     0.770660000000     0.592980000000    -0.21614    
C135     C      0.962350000000     0.690800000000     0.125870000000     0.146464   
C136     C      0.000940000000     0.634500000000     0.179710000000     0.0714561  
C137     C      0.964650000000     0.726990000000     0.161710000000    -0.121293   
C138     C      0.991040000000     0.804510000000     0.234360000000    -0.0820232  
C139     C      0.003600000000     0.669890000000     0.215510000000    -0.0936133  
C140     C      0.986230000000     0.754810000000     0.245900000000     0.025042   
C141     C      0.985230000000     0.716940000000     0.207090000000     0.0469187  
C142     C      0.990800000000     0.839270000000     0.271220000000     0.0615328  
C143     C      0.982440000000     0.777210000000     0.331050000000     0.0620202  
C144     C      0.981780000000     0.741680000000     0.295160000000    -0.0820882  
C145     C      0.935520000000     0.704130000000     0.079770000000    -0.217442   
C146     C      0.937970000000     0.177840000000     0.323890000000     0.151549   
C147     C      0.981360000000     0.123070000000     0.272180000000     0.073162   
C148     C      0.939490000000     0.213570000000     0.287160000000    -0.125793   
C149     C      0.963400000000     0.232620000000     0.155990000000    -0.0833961  
C150     C      0.983020000000     0.157990000000     0.235210000000    -0.0978721  
C151     C      0.967220000000     0.243070000000     0.205410000000     0.0264007  
C152     C      0.963040000000     0.204230000000     0.242920000000     0.0508246  
C153     C      0.967450000000     0.269960000000     0.121480000000     0.0669158  
C154     C      0.978570000000     0.327640000000     0.183640000000     0.0656606  
C155     C      0.975380000000     0.291170000000     0.218960000000    -0.0841621  
C156     C      0.908410000000     0.189490000000     0.369180000000    -0.217841   
H1       H      0.903420000000     0.052830000000     0.550860000000     0.209568   
H2       H      0.051050000000     0.060430000000     0.405430000000     0.203748   
H3       H      0.061000000000     0.909990000000     0.548320000000     0.204379   
H4       H      0.908900000000     0.902050000000     0.410890000000     0.202365   
H5       H      0.061630000000     0.140950000000     0.473700000000     0.125798   
H6       H      0.140120000000     0.079920000000     0.474120000000     0.185063   
H7       H      0.137880000000     0.904960000000     0.449240000000     0.147693   
H8       H      0.085530000000     0.836510000000     0.492030000000     0.192304   
H9       H      0.901010000000     0.821570000000     0.480740000000     0.125558   
H10      H      0.821090000000     0.884180000000     0.477750000000     0.184466   
H11      H      0.821670000000     0.056250000000     0.454020000000     0.142542   
H12      H      0.877570000000     0.127620000000     0.473270000000     0.195831   
H13      H      0.051810000000     0.794190000000     0.465920000000     0.201653   
H14      H      0.781870000000     0.929630000000     0.489930000000     0.202544   
H15      H      0.911700000000     0.167550000000     0.502390000000     0.200437   
H16      H      0.180590000000     0.033900000000     0.475350000000     0.202689   
H17      H      0.906210000000     0.551570000000     0.054650000000     0.207493   
H18      H      0.906750000000     0.410160000000     0.905300000000     0.204532   
H19      H      0.058700000000     0.549070000000     0.907030000000     0.208966   
H20      H      0.054980000000     0.405920000000     0.057540000000     0.204025   
H21      H      0.825920000000     0.481290000000     0.892230000000     0.125629   
H22      H      0.896180000000     0.478500000000     0.814270000000     0.184878   
H23      H      0.069710000000     0.451680000000     0.832010000000     0.145582   
H24      H      0.153570000000     0.512080000000     0.906930000000     0.198184   
H25      H      0.137670000000     0.478580000000     0.070870000000     0.123597   
H26      H      0.067720000000     0.474840000000     0.148090000000     0.1836     
H27      H      0.893620000000     0.453970000000     0.131090000000     0.14752    
H28      H      0.811770000000     0.517880000000     0.056660000000     0.198293   
H29      H      0.144510000000     0.452850000000     0.897540000000     0.200784   
H30      H      0.018550000000     0.477740000000     0.184440000000     0.201773   
H31      H      0.818030000000     0.457740000000     0.065310000000     0.202029   
H32      H      0.945330000000     0.483190000000     0.778100000000     0.201812   
H33      H      0.408300000000     0.056430000000     0.052510000000     0.209188   
H34      H      0.552900000000     0.907580000000     0.059250000000     0.202603   
H35      H      0.414800000000     0.905190000000     0.907070000000     0.210148   
H36      H      0.553750000000     0.056510000000     0.903780000000     0.201835   
H37      H      0.479830000000     0.896510000000     0.141710000000     0.123197   
H38      H      0.488280000000     0.817190000000     0.074600000000     0.180535   
H39      H      0.517220000000     0.830450000000     0.901210000000     0.148319   
H40      H      0.454550000000     0.901090000000     0.813730000000     0.199209   
H41      H      0.489270000000     0.067480000000     0.821550000000     0.124526   
H42      H      0.486180000000     0.147490000000     0.888060000000     0.182646   
H43      H      0.507330000000     0.135300000000     0.059850000000     0.147876   
H44      H      0.441120000000     0.061060000000     0.146270000000     0.198333   
H45      H      0.514250000000     0.894130000000     0.822690000000     0.203018   
H46      H      0.468880000000     0.183360000000     0.934010000000     0.199755   
H47      H      0.500780000000     0.070350000000     0.139180000000     0.20255    
H48      H      0.473680000000     0.780510000000     0.029100000000     0.199751   
H49      H      0.770170000000     0.600080000000     0.958810000000     0.0285896  
H50      H      0.696500000000     0.876380000000     0.950420000000     0.0261901  
H51      H      0.820420000000     0.768810000000     0.987910000000     0.046426   
H52      H      0.761100000000     0.816510000000     0.943630000000     0.0517566  
H53      H      0.709240000000     0.663630000000     0.960410000000     0.0489628  
H54      H      0.673310000000     0.712800000000     0.021840000000     0.0577256  
H55      H      0.881220000000     0.704450000000     0.983790000000     0.0232213  
H56      H      0.566820000000     0.759320000000     0.016350000000     0.0821783  
H57      H      0.604910000000     0.738540000000     0.064960000000     0.0667256  
H58      H      0.585570000000     0.800500000000     0.063930000000     0.0737175  
H59      H      0.765120000000     0.369640000000     0.992070000000     0.0268899  
H60      H      0.693320000000     0.091910000000     0.011300000000     0.027611   
H61      H      0.815730000000     0.197950000000     0.973650000000     0.0470255  
H62      H      0.756540000000     0.151700000000     0.015450000000     0.0516881  
H63      H      0.703810000000     0.307850000000     0.992310000000     0.0477405  
H64      H      0.665260000000     0.255390000000     0.940810000000     0.0571682  
H65      H      0.876620000000     0.260780000000     0.975830000000     0.0254337  
H66      H      0.559140000000     0.207160000000     0.951840000000     0.0818138  
H67      H      0.595540000000     0.231820000000     0.903310000000     0.0668509  
H68      H      0.579820000000     0.169380000000     0.901280000000     0.0748463  
H69      H      0.369610000000     0.764560000000     0.978180000000     0.0240373  
H70      H      0.093380000000     0.694240000000     0.952870000000     0.0247514  
H71      H      0.197650000000     0.815990000000     0.990930000000     0.0479723  
H72      H      0.153490000000     0.757310000000     0.949690000000     0.0504814  
H73      H      0.307750000000     0.703320000000     0.978720000000     0.0470076  
H74      H      0.252260000000     0.664560000000     0.028820000000     0.0572949  
H75      H      0.260630000000     0.876720000000     0.987870000000     0.0290046  
H76      H      0.204960000000     0.558720000000     0.017400000000     0.0915426  
H77      H      0.225810000000     0.594440000000     0.066800000000     0.0709744  
H78      H      0.163560000000     0.578200000000     0.065960000000     0.0861921  
H79      H      0.363340000000     0.195470000000     0.971530000000     0.0233875  
H80      H      0.172760000000     0.343400000000     0.033610000000     0.0201256  
H81      H      0.192650000000     0.142860000000     0.968410000000     0.0491625  
H82      H      0.233300000000     0.278670000000     0.032810000000     0.0524955  
H83      H      0.299380000000     0.256220000000     0.970520000000     0.0497875  
H84      H      0.164360000000     0.215660000000     0.909590000000     0.0554515  
H85      H      0.257710000000     0.082120000000     0.969620000000     0.0276604  
H86      H      0.099380000000     0.328330000000     0.881760000000     0.0606774  
H87      H      0.117720000000     0.270480000000     0.860680000000     0.0544805  
H88      H      0.061970000000     0.275290000000     0.895890000000    -0.0547591  
H89      H      0.703440000000     0.964410000000     0.880630000000     0.0271946  
H90      H      0.780210000000     0.933170000000     0.606170000000     0.0219794  
H91      H      0.662390000000     0.981520000000     0.707290000000     0.0490303  
H92      H      0.719080000000     0.928450000000     0.669030000000     0.0522663  
H93      H      0.768040000000     0.959140000000     0.820270000000     0.0476209  
H94      H      0.809150000000     0.010650000000     0.763460000000     0.0590441  
H95      H      0.598870000000     0.984660000000     0.767830000000     0.0280589  
H96      H      0.889270000000     0.052540000000     0.672070000000     0.0858612  
H97      H      0.878310000000     0.048030000000     0.735760000000     0.0694472  
H98      H      0.915430000000     0.002270000000     0.707500000000     0.0881007  
H99      H      0.261700000000     0.990090000000     0.874380000000     0.0282859  
H100     H      0.190080000000     0.020050000000     0.597420000000     0.0237724  
H101     H      0.309180000000     0.977510000000     0.701620000000     0.0481487  
H102     H      0.251680000000     0.022480000000     0.658480000000     0.0516436  
H103     H      0.199000000000     0.992430000000     0.813640000000     0.047325   
H104     H      0.157890000000     0.945850000000     0.758290000000     0.0570737  
H105     H      0.370930000000     0.977630000000     0.762980000000     0.0269875  
H106     H      0.075260000000     0.907480000000     0.670500000000     0.0871348  
H107     H      0.087140000000     0.911430000000     0.733610000000     0.0704975  
H108     H      0.051970000000     0.958950000000     0.705490000000     0.0892712  
H109     H      0.081310000000     0.972550000000     0.258360000000     0.0271089  
H110     H      0.264610000000     0.009740000000     0.086190000000     0.0258935  
H111     H      0.253830000000     0.995450000000     0.297410000000     0.0479597  
H112     H      0.200210000000     0.014210000000     0.146300000000     0.0527755  
H113     H      0.141590000000     0.967650000000     0.193670000000     0.0485106  
H114     H      0.288890000000     0.933380000000     0.247160000000     0.0593727  
H115     H      0.193370000000     0.998560000000     0.361260000000     0.0223929  
H116     H      0.394730000000     0.940620000000     0.201450000000     0.0924476  
H117     H      0.356970000000     0.890500000000     0.219140000000     0.071538   
H118     H      0.377090000000     0.894920000000     0.157670000000     0.0863915  
H119     H      0.699480000000     0.996570000000     0.087920000000     0.0279278  
H120     H      0.769520000000     0.005450000000     0.366540000000     0.0217032  
H121     H      0.653460000000     0.968010000000     0.259510000000     0.0471339  
H122     H      0.707720000000     0.009970000000     0.305770000000     0.0513102  
H123     H      0.762190000000     0.996370000000     0.148660000000     0.0471522  
H124     H      0.807480000000     0.948630000000     0.201230000000     0.0568656  
H125     H      0.591610000000     0.970980000000     0.198320000000     0.0288268  
H126     H      0.894410000000     0.908260000000     0.286670000000     0.0857521  
H127     H      0.881180000000     0.916170000000     0.224000000000     0.069572   
H128     H      0.911950000000     0.963850000000     0.254340000000     0.0895128  
H129     H      0.973030000000     0.084840000000     0.701390000000     0.0222762  
H130     H      0.960360000000     0.363740000000     0.772100000000     0.0198032  
H131     H      0.999620000000     0.256760000000     0.656690000000     0.0467827  
H132     H      0.958240000000     0.303240000000     0.710770000000     0.0510308  
H133     H      0.972450000000     0.144660000000     0.764800000000     0.0446331  
H134     H      0.014480000000     0.196570000000     0.811550000000     0.063761   
H135     H      0.995880000000     0.196620000000     0.594160000000     0.0265264  
H136     H      0.990630000000     0.253250000000     0.916530000000     0.123476   
H137     H      0.033180000000     0.213670000000     0.889550000000     0.116636   
H138     H      0.041360000000     0.273930000000     0.903530000000     0.239788   
H139     H      0.968930000000     0.598050000000     0.767250000000     0.0245227  
H140     H      0.958480000000     0.874450000000     0.696800000000     0.0244512  
H141     H      0.001270000000     0.766120000000     0.817690000000     0.0481767  
H142     H      0.954840000000     0.813810000000     0.760780000000     0.0513658  
H143     H      0.971510000000     0.661750000000     0.706370000000     0.0492928  
H144     H      0.031360000000     0.712180000000     0.669160000000     0.0587968  
H145     H      0.996630000000     0.701770000000     0.878250000000     0.0263659  
H146     H      0.069300000000     0.801900000000     0.581530000000     0.0754771  
H147     H      0.071850000000     0.739580000000     0.599660000000     0.068637   
H148     H      0.021920000000     0.760330000000     0.563240000000     0.0880147  
H149     H      0.994530000000     0.877120000000     0.260340000000     0.024904   
H150     H      0.016560000000     0.599020000000     0.188340000000     0.022675   
H151     H      0.976880000000     0.704120000000     0.306300000000     0.0473297  
H152     H      0.020760000000     0.660210000000     0.249510000000     0.0505437  
H153     H      0.995480000000     0.816760000000     0.197060000000     0.0464249  
H154     H      0.948700000000     0.762590000000     0.154630000000     0.0562655  
H155     H      0.978640000000     0.764850000000     0.368450000000     0.0253083  
H156     H      0.908670000000     0.675700000000     0.071430000000     0.0857764  
H157     H      0.914640000000     0.738830000000     0.083220000000     0.0694928  
H158     H      0.961720000000     0.708760000000     0.049110000000     0.0898219  
H159     H      0.963840000000     0.260320000000     0.083640000000     0.0273008  
H160     H      0.999280000000     0.088420000000     0.265100000000     0.023968   
H161     H      0.979770000000     0.300720000000     0.256680000000     0.0480255  
H162     H      0.001610000000     0.149210000000     0.201470000000     0.052819   
H163     H      0.956540000000     0.196000000000     0.143950000000     0.0483817  
H164     H      0.921640000000     0.248470000000     0.292900000000     0.058991   
H165     H      0.984840000000     0.364330000000     0.195960000000     0.0219711  
H166     H      0.932800000000     0.200790000000     0.398680000000     0.0875948  
H167     H      0.881930000000     0.219660000000     0.362560000000     0.0693282  
H168     H      0.886770000000     0.157520000000     0.380990000000     0.081832   
N1       N      0.646630000000     0.829180000000     0.988330000000    -0.204835   
N2       N      0.830220000000     0.647210000000     0.972410000000    -0.189779   
N3       N      0.641530000000     0.138660000000     0.975270000000    -0.200391   
N4       N      0.825700000000     0.320210000000     0.983470000000    -0.18637    
N5       N      0.137810000000     0.641700000000     0.990860000000    -0.201695   
N6       N      0.320080000000     0.825470000000     0.983210000000    -0.186163   
N7       N      0.133550000000     0.316740000000     0.972880000000    -0.202588   
N8       N      0.315420000000     0.134130000000     0.971250000000    -0.189621   
N9       N      0.830790000000     0.974160000000     0.647710000000    -0.204878   
N10      N      0.646320000000     0.974990000000     0.828870000000    -0.189903   
N11      N      0.137140000000     0.982850000000     0.641810000000    -0.200764   
N12      N      0.321240000000     0.983660000000     0.823560000000    -0.185961   
N13      N      0.314990000000     0.970820000000     0.132030000000    -0.205406   
N14      N      0.132810000000     0.985130000000     0.314810000000    -0.190384   
N15      N      0.825450000000     0.975870000000     0.319910000000    -0.200839   
N16      N      0.640600000000     0.983740000000     0.138210000000    -0.18536    
N17      N      0.986710000000     0.316290000000     0.829010000000    -0.212396   
N18      N      0.983750000000     0.136010000000     0.642720000000    -0.186654   
N19      N      0.994940000000     0.828240000000     0.645010000000    -0.205959   
N20      N      0.983080000000     0.644950000000     0.827300000000    -0.189758   
N21      N      0.981400000000     0.644500000000     0.134850000000    -0.201084   
N22      N      0.986590000000     0.825810000000     0.319350000000    -0.187144   
N23      N      0.961290000000     0.133410000000     0.316930000000    -0.205334   
N24      N      0.974540000000     0.317230000000     0.135210000000    -0.190599   
O1       O      0.844860000000     0.976440000000     0.401200000000    -0.362559   
O2       O      0.905360000000     0.977760000000     0.343900000000    -0.355695   
O3       O      0.982560000000     0.117100000000     0.561600000000    -0.357072   
O4       O      0.980690000000     0.056180000000     0.618770000000    -0.354301   
O5       O      0.967030000000     0.114800000000     0.397880000000    -0.363962   
O6       O      0.972650000000     0.054480000000     0.341850000000    -0.358703   
O7       O      0.848290000000     0.971120000000     0.566250000000    -0.357363   
O8       O      0.909370000000     0.979860000000     0.620490000000    -0.364319   
O9       O      0.820870000000     0.040870000000     0.486750000000    -0.343679   
O10      O      0.814720000000     0.918260000000     0.483760000000    -0.513602   
O11      O      0.908350000000     0.136420000000     0.486910000000    -0.515354   
O12      O      0.027910000000     0.153900000000     0.472670000000    -0.333956   
O13      O      0.923000000000     0.033630000000     0.433270000000    -0.469152   
O14      O      0.923970000000     0.033630000000     0.529560000000    -0.609965   
O15      O      0.990590000000     0.847040000000     0.564050000000    -0.363903   
O16      O      0.986930000000     0.907560000000     0.619960000000    -0.36034    
O17      O      0.114570000000     0.987970000000     0.395940000000    -0.368634   
O18      O      0.053660000000     0.982150000000     0.340870000000    -0.357352   
O19      O      0.117710000000     0.988770000000     0.560650000000    -0.351807   
O20      O      0.057410000000     0.981000000000     0.617610000000    -0.356319   
O21      O      0.985520000000     0.845170000000     0.400280000000    -0.360918   
O22      O      0.985430000000     0.905940000000     0.342940000000    -0.352828   
O23      O      0.054860000000     0.826440000000     0.479060000000    -0.512152   
O24      O      0.934420000000     0.808710000000     0.485440000000    -0.333229   
O25      O      0.142890000000     0.922940000000     0.479670000000    -0.345687   
O26      O      0.147260000000     0.045400000000     0.475470000000    -0.513579   
O27      O      0.039610000000     0.929090000000     0.527830000000    -0.611056   
O28      O      0.039110000000     0.928810000000     0.431990000000    -0.466364   
O29      O      0.929280000000     0.922840000000     0.534810000000    -0.472106   
O30      O      0.032990000000     0.039460000000     0.427350000000    -0.619978   
O31      O      0.927970000000     0.922720000000     0.431190000000    -0.625396   
O32      O      0.034940000000     0.040220000000     0.531310000000    -0.476015   
O33      O      0.978660000000     0.398310000000     0.116140000000    -0.368818   
O34      O      0.977680000000     0.342150000000     0.055700000000    -0.360499   
O35      O      0.848680000000     0.565850000000     0.972390000000    -0.362766   
O36      O      0.909310000000     0.621300000000     0.978720000000    -0.358392   
O37      O      0.845600000000     0.401280000000     0.981830000000    -0.358712   
O38      O      0.905790000000     0.343310000000     0.982180000000    -0.351907   
O39      O      0.984320000000     0.562960000000     0.116470000000    -0.352908   
O40      O      0.979900000000     0.619480000000     0.055280000000    -0.356116   
O41      O      0.911160000000     0.484650000000     0.136400000000    -0.341381   
O42      O      0.032850000000     0.477060000000     0.152200000000    -0.512713   
O43      O      0.825890000000     0.487000000000     0.047150000000    -0.513535   
O44      O      0.811540000000     0.482760000000     0.925350000000    -0.328323   
O45      O      0.925460000000     0.433410000000     0.036100000000    -0.468953   
O46      O      0.926390000000     0.530140000000     0.035190000000    -0.608784   
O47      O      0.117600000000     0.560600000000     0.990420000000    -0.365152   
O48      O      0.058210000000     0.618610000000     0.982180000000    -0.351131   
O49      O      0.984220000000     0.398160000000     0.847010000000    -0.363331   
O50      O      0.983210000000     0.341820000000     0.908320000000    -0.362244   
O51      O      0.979880000000     0.563780000000     0.846480000000    -0.357253   
O52      O      0.985660000000     0.619800000000     0.906660000000    -0.357616   
O53      O      0.115840000000     0.396760000000     0.983480000000    -0.365617   
O54      O      0.054770000000     0.342230000000     0.972780000000    -0.361051   
O55      O      0.137980000000     0.481930000000     0.916020000000    -0.514218   
O56      O      0.151710000000     0.473550000000     0.037990000000    -0.332963   
O57      O      0.052380000000     0.482950000000     0.825980000000    -0.340778   
O58      O      0.931000000000     0.481000000000     0.810280000000    -0.513091   
O59      O      0.038130000000     0.528280000000     0.926740000000    -0.608135   
O60      O      0.037490000000     0.431980000000     0.927400000000    -0.470606   
O61      O      0.037280000000     0.532040000000     0.037880000000    -0.47838    
O62      O      0.926390000000     0.430740000000     0.925140000000    -0.625946   
O63      O      0.035640000000     0.427740000000     0.037630000000    -0.620565   
O64      O      0.927840000000     0.534480000000     0.924800000000    -0.472312   
O65      O      0.560570000000     0.118160000000     0.974620000000    -0.367797   
O66      O      0.618430000000     0.058390000000     0.981330000000    -0.3509     
O67      O      0.396320000000     0.972980000000     0.113970000000    -0.368227   
O68      O      0.340920000000     0.980030000000     0.053230000000    -0.356877   
O69      O      0.559850000000     0.981600000000     0.117820000000    -0.357446   
O70      O      0.617910000000     0.985440000000     0.057900000000    -0.349169   
O71      O      0.396540000000     0.115350000000     0.972560000000    -0.358724   
O72      O      0.340780000000     0.054560000000     0.976500000000    -0.355216   
O73      O      0.475040000000     0.137910000000     0.044540000000    -0.342198   
O74      O      0.478030000000     0.151590000000     0.922020000000    -0.513194   
O75      O      0.472240000000     0.051570000000     0.132480000000    -0.514368   
O76      O      0.481540000000     0.930160000000     0.153980000000    -0.333528   
O77      O      0.527250000000     0.038090000000     0.035090000000    -0.470428   
O78      O      0.430260000000     0.036560000000     0.033310000000    -0.60697    
O79      O      0.401990000000     0.983670000000     0.843840000000    -0.358082   
O80      O      0.343930000000     0.981100000000     0.903790000000    -0.349065   
O81      O      0.565300000000     0.847660000000     0.987830000000    -0.371107   
O82      O      0.620880000000     0.908570000000     0.983370000000    -0.355562   
O83      O      0.400960000000     0.845360000000     0.984720000000    -0.354728   
O84      O      0.343200000000     0.905660000000     0.980580000000    -0.350414   
O85      O      0.565420000000     0.979520000000     0.847470000000    -0.366769   
O86      O      0.621000000000     0.978220000000     0.908370000000    -0.355352   
O87      O      0.484180000000     0.911800000000     0.828470000000    -0.51328    
O88      O      0.485560000000     0.034310000000     0.808570000000    -0.327354   
O89      O      0.485730000000     0.824310000000     0.917820000000    -0.34155    
O90      O      0.481390000000     0.812520000000     0.040660000000    -0.514518   
O91      O      0.434850000000     0.925470000000     0.926800000000    -0.612771   
O92      O      0.531810000000     0.926590000000     0.928360000000    -0.467523   
O93      O      0.429080000000     0.036540000000     0.922850000000    -0.47472    
O94      O      0.532210000000     0.927080000000     0.038380000000    -0.622679   
O95      O      0.532760000000     0.036860000000     0.924210000000    -0.62287    
O96      O      0.428520000000     0.926050000000     0.037450000000    -0.475963   
Zr1      Zr     0.880790000000     0.974940000000     0.483060000000     1.28884    
Zr2      Zr     0.977440000000     0.082040000000     0.480050000000     1.29066    
Zr3      Zr     0.985250000000     0.880520000000     0.481760000000     1.29293    
Zr4      Zr     0.081870000000     0.987960000000     0.478840000000     1.29018    
Zr5      Zr     0.980230000000     0.980690000000     0.389790000000     1.26638    
Zr6      Zr     0.982570000000     0.981550000000     0.571780000000     1.26292    
Zr7      Zr     0.981550000000     0.480750000000     0.081970000000     1.29145    
Zr8      Zr     0.881310000000     0.482980000000     0.978730000000     1.29414    
Zr9      Zr     0.082290000000     0.479290000000     0.984300000000     1.29229    
Zr10     Zr     0.982100000000     0.481230000000     0.880650000000     1.2919     
Zr11     Zr     0.980670000000     0.389780000000     0.981420000000     1.26677    
Zr12     Zr     0.983000000000     0.572410000000     0.980990000000     1.26274    
Zr13     Zr     0.479160000000     0.082220000000     0.976430000000     1.2915     
Zr14     Zr     0.478710000000     0.981260000000     0.081220000000     1.29152    
Zr15     Zr     0.482960000000     0.981820000000     0.880410000000     1.29719    
Zr16     Zr     0.482550000000     0.880990000000     0.985130000000     1.29276    
Zr17     Zr     0.572500000000     0.982760000000     0.982250000000     1.26537    
Zr18     Zr     0.389450000000     0.980710000000     0.979360000000     1.26471    


