data_structure

_audit_creation_method RASPA-1.0
_audit_creation_date 2023-6-5
_audit_author_name 'Poobodin Mano'

_cell_length_a    21.4288
_cell_length_b    21.4703
_cell_length_c    21.4402
_cell_angle_alpha 89.2564
_cell_angle_beta  89.2563
_cell_angle_gamma 89.2563
_cell_volume      9861.8

_symmetry_cell_setting          triclinic
_symmetry_space_group_name_Hall 'P 1'
_symmetry_space_group_name_H-M  'P 1'
_symmetry_Int_Tables_number     1

_symmetry_equiv_pos_as_xyz 'x,y,z'

loop_
_atom_site_label
_atom_site_type_symbol
_atom_site_fract_x
_atom_site_fract_y
_atom_site_fract_z
_atom_site_charge
C1       C      0.819520000000     0.971360000000     0.308530000000     0.374637   
C2       C      0.976690000000     0.126310000000     0.632160000000     0.376145   
C3       C      0.970040000000     0.121820000000     0.307260000000     0.384405   
C4       C      0.817930000000     0.969510000000     0.634030000000     0.388459   
C5       C      0.977330000000     0.818480000000     0.636860000000     0.38783    
C6       C      0.127550000000     0.957670000000     0.310990000000     0.390756   
C7       C      0.126010000000     0.972140000000     0.636340000000     0.37394    
C8       C      0.974180000000     0.814430000000     0.311840000000     0.37589    
C9       C      0.962850000000     0.303740000000     0.120990000000     0.386817   
C10      C      0.819560000000     0.635430000000     0.966380000000     0.388962   
C11      C      0.813760000000     0.311850000000     0.970750000000     0.376565   
C12      C      0.971320000000     0.628710000000     0.130330000000     0.378504   
C13      C      0.127220000000     0.632350000000     0.974070000000     0.371424   
C14      C      0.977980000000     0.312150000000     0.813120000000     0.377172   
C15      C      0.976730000000     0.636990000000     0.821950000000     0.388881   
C16      C      0.122670000000     0.305960000000     0.973730000000     0.383682   
C17      C      0.631660000000     0.126540000000     0.973730000000     0.374812   
C18      C      0.308690000000     0.957320000000     0.125480000000     0.38789    
C19      C      0.633120000000     0.969970000000     0.127120000000     0.37292    
C20      C      0.306340000000     0.122680000000     0.977250000000     0.388048   
C21      C      0.309190000000     0.967110000000     0.817680000000     0.374773   
C22      C      0.637140000000     0.820730000000     0.968360000000     0.388452   
C23      C      0.310020000000     0.815730000000     0.969830000000     0.379518   
C24      C      0.634950000000     0.975220000000     0.819210000000     0.386748   
C25      C      0.714460000000     0.669340000000     0.956870000000     0.026991   
C26      C      0.792790000000     0.743000000000     0.973430000000     0.0179348  
C27      C      0.669620000000     0.716250000000     0.957720000000     0.0260871  
C28      C      0.747840000000     0.790970000000     0.975080000000     0.0614624  
C29      C      0.739040000000     0.157860000000     0.970410000000     0.0277949  
C30      C      0.659370000000     0.233380000000     0.978970000000     0.0149946  
C31      C      0.783900000000     0.205070000000     0.969750000000     0.0253842  
C32      C      0.703640000000     0.281080000000     0.979540000000     0.0593418  
C33      C      0.232610000000     0.664810000000     0.985370000000     0.0249178  
C34      C      0.156740000000     0.738600000000     0.954320000000     0.0169032  
C35      C      0.277900000000     0.711060000000     0.983930000000     0.0292644  
C36      C      0.202530000000     0.785410000000     0.950740000000     0.0601955  
C37      C      0.153560000000     0.199140000000     0.964690000000     0.0291039  
C38      C      0.225950000000     0.273900000000     0.995910000000     0.0101093  
C39      C      0.200270000000     0.153250000000     0.966720000000     0.0286825  
C40      C      0.272360000000     0.228130000000     0.000500000000     0.0658366  
C41      C      0.712020000000     0.964920000000     0.667140000000     0.0301336  
C42      C      0.790500000000     0.978790000000     0.741340000000     0.0178708  
C43      C      0.666950000000     0.967130000000     0.714020000000     0.0253093  
C44      C      0.745420000000     0.982120000000     0.789120000000     0.0619782  
C45      C      0.225480000000     0.000910000000     0.673410000000     0.0342679  
C46      C      0.161420000000     0.937260000000     0.736810000000     0.0174647  
C47      C      0.271230000000     0.999360000000     0.719160000000     0.0233845  
C48      C      0.210100000000     0.930370000000     0.780490000000     0.0642167  
C49      C      0.201880000000     0.964250000000     0.157030000000     0.0294469  
C50      C      0.278640000000     0.935240000000     0.229910000000     0.0147511  
C51      C      0.156810000000     0.963670000000     0.204370000000     0.028317   
C52      C      0.233680000000     0.932820000000     0.277440000000     0.063765   
C53      C      0.666230000000     0.967320000000     0.233270000000     0.0250079  
C54      C      0.741410000000     0.974990000000     0.153090000000     0.0163313  
C55      C      0.713400000000     0.968000000000     0.277740000000     0.0245085  
C56      C      0.789580000000     0.976020000000     0.197470000000     0.0601731  
C57      C      0.971510000000     0.158300000000     0.739110000000     0.0281224  
C58      C      0.988770000000     0.232610000000     0.659690000000     0.0143707  
C59      C      0.972280000000     0.205610000000     0.783690000000     0.0256962  
C60      C      0.990990000000     0.280310000000     0.703870000000     0.0592859  
C61      C      0.969660000000     0.744010000000     0.790990000000     0.0300192  
C62      C      0.996170000000     0.667170000000     0.717440000000     0.0150187  
C63      C      0.970380000000     0.789220000000     0.743660000000     0.0283159  
C64      C      0.999470000000     0.712110000000     0.670240000000     0.0639585  
C65      C      0.976120000000     0.782690000000     0.204670000000     0.0289906  
C66      C      0.969500000000     0.707380000000     0.284680000000     0.0146312  
C67      C      0.975080000000     0.735380000000     0.160030000000     0.0265985  
C68      C      0.967610000000     0.659530000000     0.240650000000     0.0612392  
C69      C      0.969220000000     0.227400000000     0.273620000000     0.0253528  
C70      C      0.960650000000     0.148280000000     0.199420000000     0.0171834  
C71      C      0.966580000000     0.272090000000     0.226570000000     0.0260273  
C72      C      0.956910000000     0.193120000000     0.151280000000     0.0611019  
H1       H      0.875830000000     0.066930000000     0.559550000000     0.210178   
H2       H      0.070250000000     0.065400000000     0.376520000000     0.2042     
H3       H      0.069340000000     0.875330000000     0.561930000000     0.208321   
H4       H      0.876950000000     0.873100000000     0.381000000000     0.206674   
H5       H      0.083940000000     0.171920000000     0.462190000000     0.126303   
H6       H      0.182650000000     0.086550000000     0.463840000000     0.18722    
H7       H      0.164430000000     0.856890000000     0.451040000000     0.147793   
H8       H      0.093540000000     0.775500000000     0.500100000000     0.195861   
H9       H      0.861060000000     0.770600000000     0.469340000000     0.126574   
H10      H      0.760730000000     0.857040000000     0.469540000000     0.187623   
H11      H      0.780140000000     0.080070000000     0.433110000000     0.149363   
H12      H      0.870990000000     0.186120000000     0.511780000000     0.201232   
H13      H      0.057870000000     0.733800000000     0.446080000000     0.208164   
H14      H      0.713100000000     0.919310000000     0.474090000000     0.204479   
H15      H      0.862960000000     0.178450000000     0.434760000000     0.204697   
H16      H      0.231620000000     0.025150000000     0.463390000000     0.207716   
H17      H      0.873080000000     0.558880000000     0.066760000000     0.21257    
H18      H      0.876300000000     0.382330000000     0.870370000000     0.205002   
H19      H      0.071020000000     0.560010000000     0.879210000000     0.211111   
H20      H      0.063500000000     0.373420000000     0.068570000000     0.205977   
H21      H      0.773580000000     0.468390000000     0.854370000000     0.126583   
H22      H      0.864230000000     0.470170000000     0.756790000000     0.188132   
H23      H      0.088360000000     0.438490000000     0.782900000000     0.150385   
H24      H      0.188730000000     0.508300000000     0.873350000000     0.201088   
H25      H      0.170060000000     0.452310000000     0.087650000000     0.126677   
H26      H      0.078170000000     0.467240000000     0.187000000000     0.190391   
H27      H      0.856740000000     0.431320000000     0.163160000000     0.147406   
H28      H      0.765410000000     0.439730000000     0.079780000000     0.204832   
H29      H      0.185840000000     0.430550000000     0.871040000000     0.205543   
H30      H      0.015870000000     0.448090000000     0.230760000000     0.205828   
H31      H      0.746330000000     0.513530000000     0.061760000000     0.202805   
H32      H      0.926430000000     0.486760000000     0.711820000000     0.20778    
H33      H      0.379890000000     0.062080000000     0.069660000000     0.210551   
H34      H      0.565890000000     0.872200000000     0.067570000000     0.206069   
H35      H      0.385980000000     0.876250000000     0.875110000000     0.211691   
H36      H      0.562950000000     0.071210000000     0.876080000000     0.206503   
H37      H      0.474620000000     0.853060000000     0.173650000000     0.127167   
H38      H      0.479240000000     0.756560000000     0.085060000000     0.187294   
H39      H      0.511730000000     0.783850000000     0.859110000000     0.14934    
H40      H      0.436290000000     0.874160000000     0.755950000000     0.201843   
H41      H      0.474050000000     0.089780000000     0.772690000000     0.126424   
H42      H      0.471760000000     0.186760000000     0.860960000000     0.187977   
H43      H      0.505920000000     0.160470000000     0.082760000000     0.150005   
H44      H      0.423220000000     0.063690000000     0.188980000000     0.20128    
H45      H      0.514180000000     0.871790000000     0.759850000000     0.204649   
H46      H      0.464230000000     0.231690000000     0.923940000000     0.206444   
H47      H      0.500070000000     0.074780000000     0.181090000000     0.204824   
H48      H      0.473660000000     0.710330000000     0.023130000000     0.205518   
H49      H      0.621930000000     0.702040000000     0.950260000000     0.0366941  
H50      H      0.698680000000     0.622240000000     0.949470000000     0.0394549  
H51      H      0.841450000000     0.754580000000     0.980240000000     0.0453772  
H52      H      0.832360000000     0.190430000000     0.965510000000     0.0409807  
H53      H      0.755350000000     0.110010000000     0.966950000000     0.0404546  
H54      H      0.610300000000     0.246320000000     0.983480000000     0.0406511  
H55      H      0.324740000000     0.697090000000     0.997250000000     0.0366628  
H56      H      0.247260000000     0.618140000000     0.999090000000     0.0405362  
H57      H      0.109570000000     0.750740000000     0.940440000000     0.0449723  
H58      H      0.187780000000     0.106540000000     0.953340000000     0.0423931  
H59      H      0.107220000000     0.185680000000     0.950780000000     0.0418241  
H60      H      0.237060000000     0.320960000000     0.009870000000     0.0466692  
H61      H      0.619060000000     0.961200000000     0.699690000000     0.0382058  
H62      H      0.696290000000     0.958160000000     0.619850000000     0.0365921  
H63      H      0.839270000000     0.984420000000     0.753210000000     0.045063   
H64      H      0.312840000000     0.026600000000     0.710620000000     0.0425884  
H65      H      0.234400000000     0.028270000000     0.631410000000     0.0362639  
H66      H      0.120220000000     0.908810000000     0.742840000000     0.0432824  
H67      H      0.109540000000     0.976480000000     0.191460000000     0.0412058  
H68      H      0.187230000000     0.976820000000     0.110250000000     0.0416415  
H69      H      0.326370000000     0.921820000000     0.241010000000     0.0469574  
H70      H      0.698330000000     0.964780000000     0.326130000000     0.0355838  
H71      H      0.618490000000     0.963900000000     0.250190000000     0.0388966  
H72      H      0.753950000000     0.978160000000     0.103870000000     0.0465338  
H73      H      0.964730000000     0.191550000000     0.831930000000     0.0407427  
H74      H      0.963860000000     0.110950000000     0.755370000000     0.0401911  
H75      H      0.996520000000     0.244910000000     0.610870000000     0.0457891  
H76      H      0.958560000000     0.836630000000     0.756600000000     0.0415772  
H77      H      0.958010000000     0.758490000000     0.838040000000     0.0403069  
H78      H      0.008760000000     0.619380000000     0.705990000000     0.0458152  
H79      H      0.977820000000     0.749970000000     0.111490000000     0.0424459  
H80      H      0.979250000000     0.830510000000     0.188130000000     0.0413161  
H81      H      0.966760000000     0.694510000000     0.333850000000     0.0425922  
H82      H      0.969800000000     0.320080000000     0.241240000000     0.0331395  
H83      H      0.973830000000     0.243670000000     0.321000000000     0.0386137  
H84      H      0.957350000000     0.099340000000     0.187690000000     0.0464139  
N1       N      0.775900000000     0.682500000000     0.965200000000    -0.172488   
N2       N      0.685150000000     0.777270000000     0.967120000000    -0.17635    
N3       N      0.676670000000     0.172040000000     0.974280000000    -0.169037   
N4       N      0.767180000000     0.267110000000     0.973430000000    -0.172429   
N5       N      0.171710000000     0.678470000000     0.971780000000    -0.166884   
N6       N      0.263410000000     0.771710000000     0.968080000000    -0.173225   
N7       N      0.167080000000     0.259680000000     0.977450000000    -0.170989   
N8       N      0.260300000000     0.167750000000     0.982150000000    -0.177546   
N9       N      0.773720000000     0.970600000000     0.680700000000    -0.172109   
N10      N      0.682640000000     0.975190000000     0.775300000000    -0.175687   
N11      N      0.170020000000     0.971190000000     0.682680000000    -0.168257   
N12      N      0.263270000000     0.965590000000     0.773340000000    -0.173999   
N13      N      0.263030000000     0.952310000000     0.170390000000    -0.17177    
N14      N      0.172600000000     0.950720000000     0.265140000000    -0.177332   
N15      N      0.679970000000     0.970640000000     0.170850000000    -0.16806    
N16      N      0.775520000000     0.971980000000     0.261080000000    -0.172258   
N17      N      0.978810000000     0.171880000000     0.676950000000    -0.168565   
N18      N      0.980790000000     0.267120000000     0.766940000000    -0.173055   
N19      N      0.980450000000     0.682850000000     0.777240000000    -0.171649   
N20      N      0.982810000000     0.773410000000     0.682800000000    -0.17648    
N21      N      0.973540000000     0.768720000000     0.267070000000    -0.168659   
N22      N      0.971220000000     0.673390000000     0.176980000000    -0.171748   
N23      N      0.967000000000     0.165520000000     0.260190000000    -0.17174    
N24      N      0.961570000000     0.256060000000     0.164980000000    -0.176128   
O1       O      0.799630000000     0.970510000000     0.366160000000    -0.358991   
O2       O      0.878350000000     0.970750000000     0.294180000000    -0.344838   
O3       O      0.979080000000     0.144020000000     0.574080000000    -0.357448   
O4       O      0.972530000000     0.068340000000     0.649600000000    -0.345242   
O5       O      0.971810000000     0.141470000000     0.364080000000    -0.363605   
O6       O      0.970810000000     0.063560000000     0.292630000000    -0.353946   
O7       O      0.799030000000     0.966430000000     0.577020000000    -0.356856   
O8       O      0.875960000000     0.972560000000     0.649370000000    -0.356844   
O9       O      0.773320000000     0.058610000000     0.473730000000    -0.338555   
O10      O      0.754770000000     0.901640000000     0.471950000000    -0.513118   
O11      O      0.885000000000     0.168480000000     0.472720000000    -0.513904   
O12      O      0.041060000000     0.189570000000     0.464250000000    -0.325564   
O13      O      0.902830000000     0.040400000000     0.408380000000    -0.468147   
O14      O      0.901750000000     0.040920000000     0.533110000000    -0.608303   
O15      O      0.973220000000     0.800430000000     0.579910000000    -0.358536   
O16      O      0.976080000000     0.876470000000     0.652650000000    -0.350584   
O17      O      0.145320000000     0.961990000000     0.368120000000    -0.363695   
O18      O      0.069750000000     0.961400000000     0.294570000000    -0.35431    
O19      O      0.145350000000     0.979520000000     0.578980000000    -0.346447   
O20      O      0.067830000000     0.964950000000     0.651840000000    -0.342281   
O21      O      0.972550000000     0.796790000000     0.369950000000    -0.361277   
O22      O      0.975450000000     0.872520000000     0.294420000000    -0.343301   
O23      O      0.058580000000     0.769610000000     0.472900000000    -0.510802   
O24      O      0.902980000000     0.752790000000     0.477910000000    -0.326296   
O25      O      0.176740000000     0.887000000000     0.483070000000    -0.339564   
O26      O      0.189610000000     0.042000000000     0.465250000000    -0.514142   
O27      O      0.043270000000     0.900750000000     0.535090000000    -0.612698   
O28      O      0.045050000000     0.899810000000     0.411810000000    -0.465253   
O29      O      0.901340000000     0.899920000000     0.540790000000    -0.471221   
O30      O      0.044480000000     0.040570000000     0.404260000000    -0.619669   
O31      O      0.902260000000     0.898610000000     0.407200000000    -0.628081   
O32      O      0.043710000000     0.043010000000     0.538480000000    -0.475042   
O33      O      0.963460000000     0.360550000000     0.140850000000    -0.368671   
O34      O      0.965530000000     0.290240000000     0.062600000000    -0.351755   
O35      O      0.800150000000     0.578890000000     0.961610000000    -0.36363    
O36      O      0.877470000000     0.649840000000     0.973000000000    -0.355792   
O37      O      0.797360000000     0.369930000000     0.968160000000    -0.357622   
O38      O      0.872020000000     0.294080000000     0.970390000000    -0.34418    
O39      O      0.972050000000     0.570460000000     0.146420000000    -0.349673   
O40      O      0.971060000000     0.646770000000     0.072220000000    -0.344603   
O41      O      0.878480000000     0.471090000000     0.169590000000    -0.337983   
O42      O      0.034000000000     0.459220000000     0.190700000000    -0.513875   
O43      O      0.770410000000     0.476150000000     0.053310000000    -0.512815   
O44      O      0.754680000000     0.475170000000     0.896160000000    -0.324903   
O45      O      0.898180000000     0.407770000000     0.038900000000    -0.468752   
O46      O      0.899380000000     0.532410000000     0.041160000000    -0.61109    
O47      O      0.145940000000     0.574550000000     0.979000000000    -0.351423   
O48      O      0.068890000000     0.648610000000     0.970490000000    -0.345984   
O49      O      0.977040000000     0.370330000000     0.796560000000    -0.360524   
O50      O      0.975010000000     0.294420000000     0.871200000000    -0.348106   
O51      O      0.976580000000     0.580050000000     0.802970000000    -0.360981   
O52      O      0.974360000000     0.652450000000     0.880040000000    -0.349769   
O53      O      0.141350000000     0.362930000000     0.977700000000    -0.36591    
O54      O      0.064870000000     0.290630000000     0.968010000000    -0.349885   
O55      O      0.172980000000     0.469380000000     0.889860000000    -0.514907   
O56      O      0.188470000000     0.464830000000     0.046860000000    -0.326244   
O57      O      0.063790000000     0.476510000000     0.772500000000    -0.337278   
O58      O      0.908410000000     0.477890000000     0.752460000000    -0.513188   
O59      O      0.044230000000     0.533400000000     0.904090000000    -0.6119     
O60      O      0.044090000000     0.409100000000     0.901860000000    -0.467955   
O61      O      0.041590000000     0.534770000000     0.046620000000    -0.474953   
O62      O      0.901310000000     0.407840000000     0.896880000000    -0.627692   
O63      O      0.039290000000     0.401300000000     0.042380000000    -0.618802   
O64      O      0.903350000000     0.541310000000     0.899770000000    -0.471882   
O65      O      0.573530000000     0.144410000000     0.973360000000    -0.362905   
O66      O      0.648930000000     0.068430000000     0.973240000000    -0.345596   
O67      O      0.366000000000     0.954450000000     0.143660000000    -0.364408   
O68      O      0.292510000000     0.965140000000     0.067940000000    -0.35046    
O69      O      0.575640000000     0.966400000000     0.146760000000    -0.356002   
O70      O      0.648540000000     0.972810000000     0.068430000000    -0.346094   
O71      O      0.363380000000     0.140950000000     0.973630000000    -0.359318   
O72      O      0.290630000000     0.064630000000     0.975540000000    -0.351756   
O73      O      0.465470000000     0.167330000000     0.061800000000    -0.337165   
O74      O      0.468040000000     0.190870000000     0.905690000000    -0.513215   
O75      O      0.463170000000     0.051710000000     0.171110000000    -0.513623   
O76      O      0.474290000000     0.895370000000     0.191510000000    -0.326355   
O77      O      0.531620000000     0.040280000000     0.044020000000    -0.471804   
O78      O      0.407430000000     0.037710000000     0.043260000000    -0.606938   
O79      O      0.366190000000     0.976530000000     0.798700000000    -0.354983   
O80      O      0.293220000000     0.961540000000     0.876010000000    -0.342588   
O81      O      0.580270000000     0.800650000000     0.969240000000    -0.365974   
O82      O      0.650520000000     0.878990000000     0.968620000000    -0.353783   
O83      O      0.367850000000     0.796530000000     0.972270000000    -0.349335   
O84      O      0.294260000000     0.873970000000     0.970220000000    -0.343818   
O85      O      0.577870000000     0.977130000000     0.799650000000    -0.362569   
O86      O      0.648900000000     0.972420000000     0.877410000000    -0.352428   
O87      O      0.474660000000     0.890570000000     0.771820000000    -0.514135   
O88      O      0.471720000000     0.047950000000     0.754020000000    -0.325936   
O89      O      0.474630000000     0.771810000000     0.884280000000    -0.338694   
O90      O      0.475880000000     0.751540000000     0.040520000000    -0.513887   
O91      O      0.411520000000     0.901810000000     0.901020000000    -0.613218   
O92      O      0.535240000000     0.903490000000     0.901130000000    -0.465188   
O93      O      0.402750000000     0.044100000000     0.901390000000    -0.474302   
O94      O      0.538560000000     0.897980000000     0.042360000000    -0.624154   
O95      O      0.536420000000     0.044630000000     0.901300000000    -0.625341   
O96      O      0.405020000000     0.896720000000     0.043190000000    -0.472204   
S1       S      0.773010000000     0.858790000000     0.990010000000     0.00397452 
S2       S      0.675940000000     0.349520000000     0.990700000000    -0.00307697 
S3       S      0.179530000000     0.857860000000     0.915560000000     0.0145618  
S4       S      0.334940000000     0.247950000000     0.034330000000    -0.000929429
S5       S      0.770480000000     0.998420000000     0.856730000000     0.00248042 
S6       S      0.211360000000     0.859350000000     0.824360000000    -0.0108342  
S7       S      0.255580000000     0.903000000000     0.342310000000    -0.00688418 
S8       S      0.858640000000     0.983660000000     0.170000000000     0.00282701 
S9       S      0.009660000000     0.347390000000     0.677140000000    -0.00373222 
S10      S      0.029600000000     0.689790000000     0.605590000000    -0.00606796 
S11      S      0.958880000000     0.590980000000     0.268970000000    -0.00210305 
S12      S      0.944020000000     0.167460000000     0.083180000000     0.00581971 
Zr1      Zr     0.843950000000     0.968810000000     0.472040000000     1.29322    
Zr2      Zr     0.974180000000     0.098880000000     0.469960000000     1.29472    
Zr3      Zr     0.971730000000     0.842120000000     0.474310000000     1.29949    
Zr4      Zr     0.102100000000     0.972910000000     0.473050000000     1.29399    
Zr5      Zr     0.973950000000     0.968760000000     0.354660000000     1.2668     
Zr6      Zr     0.972470000000     0.971420000000     0.590230000000     1.26072    
Zr7      Zr     0.969120000000     0.467110000000     0.099940000000     1.29684    
Zr8      Zr     0.842950000000     0.473610000000     0.966440000000     1.30045    
Zr9      Zr     0.100210000000     0.469190000000     0.976580000000     1.29375    
Zr10     Zr     0.973790000000     0.474040000000     0.843030000000     1.29996    
Zr11     Zr     0.969850000000     0.352960000000     0.968500000000     1.26436    
Zr12     Zr     0.972790000000     0.588770000000     0.974150000000     1.26198    
Zr13     Zr     0.468820000000     0.099270000000     0.971760000000     1.29725    
Zr14     Zr     0.470750000000     0.964920000000     0.101070000000     1.29651    
Zr15     Zr     0.471710000000     0.976560000000     0.843100000000     1.29295    
Zr16     Zr     0.473390000000     0.841880000000     0.972750000000     1.29354    
Zr17     Zr     0.588330000000     0.972660000000     0.972450000000     1.27149    
Zr18     Zr     0.353400000000     0.969370000000     0.971980000000     1.26224    


