data_structure

_audit_creation_method RASPA-1.0
_audit_creation_date 2023-6-5
_audit_author_name 'Poobodin Mano'

_cell_length_a    21.1981
_cell_length_b    21.3083
_cell_length_c    21.0705
_cell_angle_alpha 89.2564
_cell_angle_beta  89.2563
_cell_angle_gamma 89.2563
_cell_volume      9515.07

_symmetry_cell_setting          triclinic
_symmetry_space_group_name_Hall 'P 1'
_symmetry_space_group_name_H-M  'P 1'
_symmetry_Int_Tables_number     1

_symmetry_equiv_pos_as_xyz 'x,y,z'

loop_
_atom_site_label
_atom_site_type_symbol
_atom_site_fract_x
_atom_site_fract_y
_atom_site_fract_z
_atom_site_charge
C1       C      0.823630000000     0.004750000000     0.325130000000     0.380964   
C2       C      0.014530000000     0.127170000000     0.649070000000     0.373498   
C3       C      0.003220000000     0.123550000000     0.319800000000     0.383377   
C4       C      0.829900000000     0.008450000000     0.656830000000     0.383395   
C5       C      0.937150000000     0.827730000000     0.655540000000     0.383333   
C6       C      0.129150000000     0.941870000000     0.317840000000     0.375151   
C7       C      0.135890000000     0.947090000000     0.649270000000     0.376282   
C8       C      0.950430000000     0.819250000000     0.325700000000     0.372852   
C9       C      0.986890000000     0.312090000000     0.134330000000     0.383945   
C10      C      0.821130000000     0.639760000000     0.974180000000     0.378598   
C11      C      0.827900000000     0.311620000000     0.977970000000     0.377193   
C12      C      0.979520000000     0.639000000000     0.141500000000     0.378694   
C13      C      0.131860000000     0.642900000000     0.989980000000     0.374518   
C14      C      0.987250000000     0.319020000000     0.822020000000     0.375735   
C15      C      0.952190000000     0.645580000000     0.833860000000     0.387515   
C16      C      0.135860000000     0.314680000000     0.977360000000     0.381701   
C17      C      0.645100000000     0.129120000000     0.994920000000     0.37531    
C18      C      0.308630000000     0.983430000000     0.137500000000     0.380006   
C19      C      0.637990000000     0.978120000000     0.148170000000     0.371698   
C20      C      0.320300000000     0.135160000000     0.958730000000     0.383261   
C21      C      0.322150000000     0.980240000000     0.823730000000     0.378798   
C22      C      0.642230000000     0.818910000000     0.005450000000     0.38369    
C23      C      0.314680000000     0.825110000000     0.976620000000     0.376939   
C24      C      0.650850000000     0.968010000000     0.834540000000     0.377657   
C25      C      0.791520000000     0.752980000000     0.962380000000    -0.0165253  
C26      C      0.708230000000     0.670630000000     0.969900000000    -0.0466107  
C27      C      0.756020000000     0.790920000000     0.013460000000    -0.0110981  
C28      C      0.677740000000     0.705560000000     0.025530000000     0.0784107  
C29      C      0.609640000000     0.683840000000     0.037600000000    -0.182683   
C30      C      0.676380000000     0.239920000000     0.009490000000    -0.01193    
C31      C      0.758250000000     0.154710000000     0.010410000000    -0.0400807  
C32      C      0.717560000000     0.278900000000     0.964560000000    -0.0171763  
C33      C      0.801270000000     0.195010000000     0.966810000000     0.0727923  
C34      C      0.870590000000     0.175180000000     0.977640000000    -0.186068   
C35      C      0.158370000000     0.756070000000     0.002990000000    -0.0108852  
C36      C      0.243830000000     0.673430000000     0.998240000000    -0.0467855  
C37      C      0.201110000000     0.800600000000     0.963550000000    -0.0158576  
C38      C      0.279860000000     0.714230000000     0.950350000000     0.0768449  
C39      C      0.348690000000     0.691210000000     0.943360000000    -0.185043   
C40      C      0.288950000000     0.246470000000     0.940180000000    -0.0114666  
C41      C      0.209210000000     0.162430000000     0.933020000000    -0.0403799  
C42      C      0.247110000000     0.281640000000     0.987440000000    -0.0178616  
C43      C      0.164900000000     0.197710000000     0.979100000000     0.0729067  
C44      C      0.096370000000     0.179100000000     0.964590000000    -0.186946   
C45      C      0.765770000000     0.961020000000     0.805870000000    -0.0173028  
C46      C      0.683700000000     0.974310000000     0.721520000000    -0.0465385  
C47      C      0.804820000000     0.012950000000     0.772590000000    -0.0112668  
C48      C      0.718370000000     0.032020000000     0.696430000000     0.0814742  
C49      C      0.696020000000     0.051790000000     0.629780000000    -0.188512   
C50      C      0.166520000000     0.944460000000     0.763530000000    -0.0144017  
C51      C      0.248080000000     0.929430000000     0.678530000000    -0.0410235  
C52      C      0.209190000000     0.992430000000     0.795280000000    -0.0153575  
C53      C      0.288390000000     0.981090000000     0.707240000000     0.073214   
C54      C      0.357290000000     0.973460000000     0.684110000000    -0.186438   
C55      C      0.240040000000     0.926900000000     0.281110000000    -0.0140623  
C56      C      0.154390000000     0.939890000000     0.201700000000    -0.0416764  
C57      C      0.275090000000     0.981780000000     0.250390000000    -0.0152133  
C58      C      0.191290000000     0.993670000000     0.168970000000     0.0716367  
C59      C      0.171980000000     0.000670000000     0.099020000000    -0.181044   
C60      C      0.669350000000     0.980460000000     0.261770000000    -0.0182117  
C61      C      0.751370000000     0.967560000000     0.175830000000    -0.0447816  
C62      C      0.712540000000     0.026930000000     0.294830000000    -0.0114511  
C63      C      0.792500000000     0.016320000000     0.208210000000     0.0778949  
C64      C      0.861660000000     0.008800000000     0.185960000000    -0.18461    
C65      C      0.017590000000     0.158070000000     0.763130000000    -0.0120188  
C66      C      0.045460000000     0.235170000000     0.678400000000    -0.0413198  
C67      C      0.974350000000     0.207320000000     0.794760000000    -0.0160966  
C68      C      0.999700000000     0.284530000000     0.706700000000     0.0704834  
C69      C      0.023130000000     0.350330000000     0.686770000000    -0.177958   
C70      C      0.913980000000     0.807400000000     0.769270000000    -0.0142707  
C71      C      0.900960000000     0.723220000000     0.685610000000    -0.0414572  
C72      C      0.943340000000     0.758620000000     0.813850000000    -0.00850977 
C73      C      0.888390000000     0.679580000000     0.742630000000     0.077866   
C74      C      0.819130000000     0.681730000000     0.765240000000    -0.185495   
C75      C      0.934290000000     0.708520000000     0.293000000000    -0.0160501  
C76      C      0.942950000000     0.793550000000     0.210970000000    -0.0420148  
C77      C      0.981480000000     0.668060000000     0.255030000000    -0.0146784  
C78      C      0.991780000000     0.753890000000     0.173790000000     0.0754071  
C79      C      0.993680000000     0.775680000000     0.103830000000    -0.189822   
C80      C      0.022920000000     0.232710000000     0.286890000000    -0.0140225  
C81      C      0.987010000000     0.151280000000     0.207580000000    -0.0461962  
C82      C      0.985760000000     0.278650000000     0.246060000000    -0.0125551  
C83      C      0.008110000000     0.199850000000     0.157430000000     0.0805338  
C84      C      0.078920000000     0.192520000000     0.141930000000    -0.184721   
H1       H      0.904440000000     0.088930000000     0.576950000000     0.207885   
H2       H      0.093030000000     0.047910000000     0.388240000000     0.203135   
H3       H      0.056270000000     0.860100000000     0.579120000000     0.20806    
H4       H      0.862670000000     0.896920000000     0.397230000000     0.204859   
H5       H      0.131660000000     0.147720000000     0.475120000000     0.124064   
H6       H      0.214940000000     0.039000000000     0.470220000000     0.1841     
H7       H      0.151410000000     0.827110000000     0.446120000000     0.146559   
H8       H      0.035360000000     0.740950000000     0.537350000000     0.197465   
H9       H      0.828660000000     0.796260000000     0.492840000000     0.12503    
H10      H      0.745840000000     0.906190000000     0.511080000000     0.185257   
H11      H      0.810930000000     0.121440000000     0.452100000000     0.146406   
H12      H      0.923280000000     0.207510000000     0.525550000000     0.195359   
H13      H      0.049040000000     0.747170000000     0.459150000000     0.201179   
H14      H      0.712720000000     0.970060000000     0.477690000000     0.196218   
H15      H      0.914240000000     0.201300000000     0.447150000000     0.198861   
H16      H      0.248150000000     0.968480000000     0.483930000000     0.198747   
H17      H      0.880000000000     0.565010000000     0.081820000000     0.207906   
H18      H      0.882970000000     0.386610000000     0.882080000000     0.202246   
H19      H      0.073530000000     0.572480000000     0.884020000000     0.207366   
H20      H      0.079290000000     0.384040000000     0.077170000000     0.202622   
H21      H      0.770380000000     0.478020000000     0.873410000000     0.12643    
H22      H      0.871240000000     0.459700000000     0.759220000000     0.182779   
H23      H      0.091730000000     0.460930000000     0.782990000000     0.142217   
H24      H      0.194780000000     0.524760000000     0.875210000000     0.195392   
H25      H      0.186200000000     0.468610000000     0.091080000000     0.124574   
H26      H      0.094300000000     0.467580000000     0.197930000000     0.183778   
H27      H      0.871890000000     0.434220000000     0.181320000000     0.146617   
H28      H      0.761920000000     0.514820000000     0.089800000000     0.195021   
H29      H      0.190480000000     0.446880000000     0.867470000000     0.198144   
H30      H      0.031190000000     0.473050000000     0.246250000000     0.199915   
H31      H      0.771750000000     0.437000000000     0.097010000000     0.199659   
H32      H      0.928330000000     0.495100000000     0.717020000000     0.197488   
H33      H      0.386110000000     0.078550000000     0.075700000000     0.207259   
H34      H      0.567940000000     0.881350000000     0.092790000000     0.204031   
H35      H      0.394850000000     0.880480000000     0.888870000000     0.205326   
H36      H      0.580330000000     0.070450000000     0.887240000000     0.202554   
H37      H      0.474370000000     0.870280000000     0.196710000000     0.123265   
H38      H      0.469550000000     0.770480000000     0.114270000000     0.181726   
H39      H      0.528920000000     0.779800000000     0.888470000000     0.148331   
H40      H      0.466550000000     0.849580000000     0.796140000000     0.190619   
H41      H      0.483230000000     0.086900000000     0.778660000000     0.126827   
H42      H      0.500370000000     0.188340000000     0.862660000000     0.182766   
H43      H      0.506660000000     0.173720000000     0.092130000000     0.146577   
H44      H      0.430420000000     0.088330000000     0.197170000000     0.196273   
H45      H      0.506250000000     0.892520000000     0.742390000000     0.198011   
H46      H      0.489820000000     0.237340000000     0.923480000000     0.199862   
H47      H      0.509260000000     0.091000000000     0.195220000000     0.199766   
H48      H      0.466300000000     0.719680000000     0.054530000000     0.195069   
H49      H      0.580570000000     0.688750000000     0.994270000000     0.0746673  
H50      H      0.686050000000     0.687320000000     0.925060000000     0.0464991  
H51      H      0.776150000000     0.770720000000     0.915100000000     0.0372055  
H52      H      0.764070000000     0.841650000000     0.004300000000     0.0429539  
H53      H      0.699260000000     0.619510000000     0.974900000000     0.0512803  
H54      H      0.610020000000     0.633300000000     0.051320000000     0.0584338  
H55      H      0.704180000000     0.690610000000     0.068680000000     0.0151647  
H56      H      0.842910000000     0.761740000000     0.965890000000     0.0408778  
H57      H      0.777250000000     0.779070000000     0.060180000000     0.0343039  
H58      H      0.588100000000     0.709690000000     0.078000000000     0.0711708  
H59      H      0.886600000000     0.189490000000     0.025280000000     0.0803031  
H60      H      0.771190000000     0.162800000000     0.060650000000     0.0443704  
H61      H      0.686440000000     0.253840000000     0.059000000000     0.037139   
H62      H      0.705580000000     0.329150000000     0.972190000000     0.0448168  
H63      H      0.766970000000     0.104170000000     0.000540000000     0.0497644  
H64      H      0.875840000000     0.123310000000     0.974930000000     0.0573775  
H65      H      0.790210000000     0.181710000000     0.917280000000     0.0168473  
H66      H      0.626100000000     0.251650000000     0.000200000000     0.0403628  
H67      H      0.704580000000     0.267870000000     0.914990000000     0.0360438  
H68      H      0.901660000000     0.194440000000     0.939550000000     0.0785179  
H69      H      0.373380000000     0.691540000000     0.989500000000     0.0748279  
H70      H      0.260810000000     0.683540000000     0.046760000000     0.0505522  
H71      H      0.163380000000     0.767790000000     0.053930000000     0.0361128  
H72      H      0.192620000000     0.849240000000     0.980360000000     0.0406741  
H73      H      0.254180000000     0.623120000000     0.988750000000     0.0518246  
H74      H      0.349660000000     0.642000000000     0.926480000000     0.0607344  
H75      H      0.258180000000     0.705940000000     0.903310000000     0.0162962  
H76      H      0.108520000000     0.765780000000     0.990060000000     0.0369819  
H77      H      0.185850000000     0.799180000000     0.913290000000     0.0363523  
H78      H      0.373950000000     0.719520000000     0.906760000000     0.0813262  
H79      H      0.081130000000     0.198900000000     0.918110000000     0.0818656  
H80      H      0.197300000000     0.176920000000     0.883610000000     0.0442391  
H81      H      0.277940000000     0.264010000000     0.891570000000     0.0367222  
H82      H      0.257520000000     0.332440000000     0.982530000000     0.0449606  
H83      H      0.201340000000     0.111030000000     0.937170000000     0.0484627  
H84      H      0.092660000000     0.127190000000     0.962230000000     0.057094   
H85      H      0.175470000000     0.179050000000     0.027440000000     0.0158144  
H86      H      0.339080000000     0.257160000000     0.949700000000     0.0414149  
H87      H      0.260790000000     0.266730000000     0.036210000000     0.0394532  
H88      H      0.063340000000     0.193360000000     0.003170000000     0.0807457  
H89      H      0.696230000000     0.011530000000     0.596870000000     0.0793312  
H90      H      0.701270000000     0.932320000000     0.695490000000     0.045972   
H91      H      0.783970000000     0.914930000000     0.788930000000     0.0381139  
H92      H      0.855770000000     0.002260000000     0.779060000000     0.0433821  
H93      H      0.632460000000     0.979450000000     0.711900000000     0.0501119  
H94      H      0.646550000000     0.069500000000     0.632940000000     0.063602   
H95      H      0.704140000000     0.071670000000     0.727780000000     0.0166773  
H96      H      0.773620000000     0.962570000000     0.857860000000     0.0416288  
H97      H      0.794450000000     0.057860000000     0.797200000000     0.0343603  
H98      H      0.725090000000     0.090780000000     0.610490000000     0.0825119  
H99      H      0.378730000000     0.929000000000     0.702300000000     0.0751874  
H100     H      0.263230000000     0.883410000000     0.699190000000     0.0429686  
H101     H      0.175700000000     0.897740000000     0.785930000000     0.0376151  
H102     H      0.200250000000     0.990250000000     0.847310000000     0.0433733  
H103     H      0.256680000000     0.927310000000     0.626450000000     0.0479708  
H104     H      0.359160000000     0.972010000000     0.631420000000     0.0592542  
H105     H      0.270970000000     0.026390000000     0.686630000000     0.0227578  
H106     H      0.116390000000     0.957330000000     0.773260000000     0.0431896  
H107     H      0.194160000000     0.040080000000     0.778890000000     0.0402671  
H108     H      0.385410000000     0.014700000000     0.697480000000     0.0863739  
H109     H      0.183280000000     0.957370000000     0.072090000000     0.0778185  
H110     H      0.167320000000     0.895170000000     0.177840000000     0.0450054  
H111     H      0.257350000000     0.882760000000     0.258830000000     0.0406096  
H112     H      0.326100000000     0.975830000000     0.260500000000     0.0446669  
H113     H      0.102860000000     0.947710000000     0.195550000000     0.0485223  
H114     H      0.120210000000     0.008970000000     0.096270000000     0.0569471  
H115     H      0.174980000000     0.037620000000     0.192480000000     0.0175514  
H116     H      0.251560000000     0.924180000000     0.332360000000     0.040252   
H117     H      0.258950000000     0.025730000000     0.273860000000     0.0343349  
H118     H      0.194660000000     0.042260000000     0.076600000000     0.0768412  
H119     H      0.880580000000     0.961160000000     0.197440000000     0.0770147  
H120     H      0.766270000000     0.919930000000     0.192500000000     0.0437593  
H121     H      0.677200000000     0.933150000000     0.283380000000     0.0367191  
H122     H      0.702520000000     0.024490000000     0.346650000000     0.0374294  
H123     H      0.759870000000     0.969760000000     0.123680000000     0.0511071  
H124     H      0.864860000000     0.015280000000     0.133600000000     0.0586405  
H125     H      0.776450000000     0.063050000000     0.189830000000     0.0188746  
H126     H      0.619470000000     0.994420000000     0.271290000000     0.041743   
H127     H      0.699380000000     0.075120000000     0.278400000000     0.0353891  
H128     H      0.891260000000     0.045550000000     0.206770000000     0.0812764  
H129     H      0.065080000000     0.363460000000     0.714490000000     0.071274   
H130     H      0.092920000000     0.241970000000     0.699070000000     0.0449296  
H131     H      0.064840000000     0.160390000000     0.785290000000     0.0357801  
H132     H      0.975350000000     0.198650000000     0.846800000000     0.0372244  
H133     H      0.050250000000     0.242930000000     0.626300000000     0.0514287  
H134     H      0.036800000000     0.351510000000     0.635670000000     0.0595538  
H135     H      0.953350000000     0.277900000000     0.683640000000     0.0160954  
H136     H      0.998490000000     0.110590000000     0.773150000000     0.0408465  
H137     H      0.925240000000     0.198740000000     0.779440000000     0.0347875  
H138     H      0.984780000000     0.385920000000     0.691520000000     0.0739665  
H139     H      0.804400000000     0.728980000000     0.781370000000     0.0707898  
H140     H      0.859190000000     0.725600000000     0.654130000000     0.0475946  
H141     H      0.863410000000     0.814240000000     0.781800000000     0.0333587  
H142     H      0.925500000000     0.767290000000     0.862910000000     0.0394214  
H143     H      0.939690000000     0.701840000000     0.656540000000     0.0468099  
H144     H      0.787660000000     0.667730000000     0.726260000000     0.0616468  
H145     H      0.896510000000     0.631080000000     0.725040000000     0.0207836  
H146     H      0.936910000000     0.853130000000     0.777470000000     0.0431505  
H147     H      0.995290000000     0.765370000000     0.814580000000     0.0402289  
H148     H      0.812260000000     0.648130000000     0.805430000000     0.0757433  
H149     H      0.947860000000     0.767680000000     0.080410000000     0.0799923  
H150     H      0.895290000000     0.784060000000     0.192050000000     0.0423148  
H151     H      0.885820000000     0.695690000000     0.278830000000     0.0388107  
H152     H      0.969840000000     0.618040000000     0.264150000000     0.0425505  
H153     H      0.952250000000     0.844280000000     0.202950000000     0.0474168  
H154     H      0.003250000000     0.826810000000     0.100880000000     0.0608135  
H155     H      0.038650000000     0.765670000000     0.193410000000     0.0218443  
H156     H      0.939160000000     0.696880000000     0.344270000000     0.043908   
H157     H      0.029430000000     0.675840000000     0.274020000000     0.0385536  
H158     H      0.033020000000     0.752060000000     0.078010000000     0.0856379  
H159     H      0.108020000000     0.195330000000     0.185090000000     0.0697695  
H160     H      0.004900000000     0.103790000000     0.194340000000     0.0461033  
H161     H      0.074200000000     0.239400000000     0.278420000000     0.0353831  
H162     H      0.001440000000     0.326770000000     0.257460000000     0.0394631  
H163     H      0.934650000000     0.149140000000     0.207090000000     0.0434306  
H164     H      0.088410000000     0.146370000000     0.119520000000     0.0594585  
H165     H      0.982410000000     0.189510000000     0.113080000000     0.0154155  
H166     H      0.013340000000     0.244740000000     0.337320000000     0.0423072  
H167     H      0.934880000000     0.275810000000     0.259170000000     0.03659    
H168     H      0.094310000000     0.229950000000     0.108270000000     0.0725526  
N1       N      0.688460000000     0.773960000000     0.015250000000    -0.175021   
N2       N      0.775880000000     0.685770000000     0.968060000000    -0.16046    
N3       N      0.785180000000     0.263380000000     0.973550000000    -0.172374   
N4       N      0.691510000000     0.172710000000     0.002330000000    -0.159099   
N5       N      0.268440000000     0.781390000000     0.966390000000    -0.172682   
N6       N      0.176040000000     0.689240000000     0.994820000000    -0.159461   
N7       N      0.179850000000     0.266490000000     0.978140000000    -0.173899   
N8       N      0.274910000000     0.179230000000     0.944870000000    -0.161072   
N9       N      0.786920000000     0.019850000000     0.705060000000    -0.174567   
N10      N      0.698230000000     0.966620000000     0.789600000000    -0.159647   
N11      N      0.276550000000     0.982580000000     0.777340000000    -0.171428   
N12      N      0.181180000000     0.940720000000     0.695100000000    -0.158716   
N13      N      0.260180000000     0.985800000000     0.181900000000    -0.173073   
N14      N      0.172140000000     0.934740000000     0.269140000000    -0.160164   
N15      N      0.779590000000     0.014520000000     0.278030000000    -0.173539   
N16      N      0.684290000000     0.977480000000     0.193270000000    -0.158284   
N17      N      0.991030000000     0.272740000000     0.776500000000    -0.172057   
N18      N      0.024240000000     0.171460000000     0.694760000000    -0.158588   
N19      N      0.930670000000     0.693320000000     0.795770000000    -0.174306   
N20      N      0.919470000000     0.787130000000     0.702960000000    -0.159603   
N21      N      0.981340000000     0.685530000000     0.186680000000    -0.171384   
N22      N      0.943780000000     0.775660000000     0.278760000000    -0.15887    
N23      N      0.993410000000     0.264650000000     0.178010000000    -0.178098   
N24      N      0.006360000000     0.167530000000     0.272300000000    -0.161203   
O1       O      0.804830000000     0.008730000000     0.383810000000    -0.365219   
O2       O      0.881270000000     0.991820000000     0.309190000000    -0.360029   
O3       O      0.020270000000     0.144530000000     0.590150000000    -0.360323   
O4       O      0.000140000000     0.070630000000     0.666840000000    -0.347768   
O5       O      0.013000000000     0.141850000000     0.377050000000    -0.36883    
O6       O      0.989450000000     0.066730000000     0.305070000000    -0.361007   
O7       O      0.810040000000     0.007860000000     0.599090000000    -0.359617   
O8       O      0.888310000000     0.998880000000     0.671560000000    -0.354509   
O9       O      0.796350000000     0.099500000000     0.491200000000    -0.346133   
O10      O      0.749600000000     0.948110000000     0.493510000000    -0.517986   
O11      O      0.933710000000     0.187040000000     0.486060000000    -0.514608   
O12      O      0.093140000000     0.174280000000     0.478820000000    -0.331336   
O13      O      0.922670000000     0.056970000000     0.424060000000    -0.469217   
O14      O      0.924310000000     0.057870000000     0.550030000000    -0.609649   
O15      O      0.933510000000     0.808070000000     0.597870000000    -0.365277   
O16      O      0.955070000000     0.883300000000     0.670530000000    -0.357206   
O17      O      0.149610000000     0.938910000000     0.375600000000    -0.365063   
O18      O      0.070800000000     0.952520000000     0.303630000000    -0.355849   
O19      O      0.154140000000     0.944410000000     0.590420000000    -0.3556     
O20      O      0.077650000000     0.955660000000     0.666880000000    -0.352548   
O21      O      0.945880000000     0.800510000000     0.384410000000    -0.357785   
O22      O      0.960730000000     0.876890000000     0.308920000000    -0.354957   
O23      O      0.027150000000     0.761270000000     0.496970000000    -0.513089   
O24      O      0.867880000000     0.770610000000     0.490240000000    -0.330482   
O25      O      0.158420000000     0.845160000000     0.488480000000    -0.34396    
O26      O      0.210890000000     0.994500000000     0.478440000000    -0.513897   
O27      O      0.035960000000     0.890330000000     0.551290000000    -0.606577   
O28      O      0.034750000000     0.888780000000     0.423950000000    -0.469947   
O29      O      0.895480000000     0.918790000000     0.558630000000    -0.473964   
O30      O      0.063140000000     0.028080000000     0.416840000000    -0.621264   
O31      O      0.893240000000     0.917190000000     0.423420000000    -0.624367   
O32      O      0.066230000000     0.029620000000     0.552320000000    -0.474998   
O33      O      0.983250000000     0.368880000000     0.155170000000    -0.371888   
O34      O      0.986900000000     0.297790000000     0.074960000000    -0.363119   
O35      O      0.802950000000     0.581960000000     0.973740000000    -0.3617     
O36      O      0.879270000000     0.656300000000     0.979770000000    -0.354262   
O37      O      0.806390000000     0.369010000000     0.978200000000    -0.361297   
O38      O      0.887220000000     0.298140000000     0.979990000000    -0.363014   
O39      O      0.982810000000     0.580870000000     0.160620000000    -0.353955   
O40      O      0.974800000000     0.654830000000     0.082430000000    -0.358567   
O41      O      0.890720000000     0.476230000000     0.185420000000    -0.344109   
O42      O      0.049150000000     0.471390000000     0.203900000000    -0.512      
O43      O      0.780530000000     0.475990000000     0.074890000000    -0.513651   
O44      O      0.754160000000     0.475540000000     0.917640000000    -0.331216   
O45      O      0.909390000000     0.412640000000     0.054230000000    -0.468926   
O46      O      0.906410000000     0.538500000000     0.055420000000    -0.608101   
O47      O      0.151960000000     0.585200000000     0.989300000000    -0.360058   
O48      O      0.072760000000     0.658740000000     0.986960000000    -0.35358    
O49      O      0.984020000000     0.377250000000     0.803940000000    -0.366075   
O50      O      0.985890000000     0.301970000000     0.881220000000    -0.355826   
O51      O      0.948020000000     0.588560000000     0.813790000000    -0.355791   
O52      O      0.971800000000     0.659880000000     0.889470000000    -0.360619   
O53      O      0.155450000000     0.372150000000     0.979720000000    -0.362567   
O54      O      0.077260000000     0.300660000000     0.975760000000    -0.364632   
O55      O      0.178830000000     0.484740000000     0.889770000000    -0.514282   
O56      O      0.203010000000     0.475230000000     0.047470000000    -0.329294   
O57      O      0.065420000000     0.499440000000     0.778720000000    -0.348826   
O58      O      0.912600000000     0.478180000000     0.756870000000    -0.51182    
O59      O      0.048850000000     0.543840000000     0.909800000000    -0.607094   
O60      O      0.051410000000     0.418540000000     0.907350000000    -0.46952    
O61      O      0.051170000000     0.544070000000     0.054850000000    -0.473993   
O62      O      0.907760000000     0.413240000000     0.908590000000    -0.623825   
O63      O      0.052500000000     0.411320000000     0.051980000000    -0.619354   
O64      O      0.905080000000     0.546010000000     0.912530000000    -0.470162   
O65      O      0.587550000000     0.149450000000     0.989920000000    -0.36641    
O66      O      0.660870000000     0.070190000000     0.994320000000    -0.352935   
O67      O      0.365790000000     0.980380000000     0.158460000000    -0.362714   
O68      O      0.295690000000     0.984420000000     0.077730000000    -0.360519   
O69      O      0.579320000000     0.979380000000     0.166840000000    -0.357682   
O70      O      0.655510000000     0.976440000000     0.089190000000    -0.351437   
O71      O      0.378110000000     0.153540000000     0.960910000000    -0.358196   
O72      O      0.303160000000     0.077580000000     0.967480000000    -0.355557   
O73      O      0.468340000000     0.179550000000     0.066230000000    -0.343815   
O74      O      0.492780000000     0.195130000000     0.907380000000    -0.512369   
O75      O      0.470560000000     0.071100000000     0.183190000000    -0.512866   
O76      O      0.470620000000     0.913690000000     0.212650000000    -0.332005   
O77      O      0.541130000000     0.048600000000     0.056800000000    -0.466765   
O78      O      0.414480000000     0.051310000000     0.052240000000    -0.606223   
O79      O      0.381030000000     0.979700000000     0.806830000000    -0.361677   
O80      O      0.303830000000     0.979400000000     0.882600000000    -0.349839   
O81      O      0.584150000000     0.801530000000     0.003940000000    -0.370059   
O82      O      0.659060000000     0.876880000000     0.999510000000    -0.357524   
O83      O      0.372150000000     0.805600000000     0.983850000000    -0.361432   
O84      O      0.298820000000     0.884070000000     0.976670000000    -0.353607   
O85      O      0.593580000000     0.970710000000     0.814310000000    -0.365118   
O86      O      0.665260000000     0.967840000000     0.894130000000    -0.354588   
O87      O      0.486650000000     0.888400000000     0.783860000000    -0.513159   
O88      O      0.493120000000     0.044520000000     0.762260000000    -0.341416   
O89      O      0.488070000000     0.771030000000     0.909870000000    -0.354045   
O90      O      0.469470000000     0.762250000000     0.069290000000    -0.514284   
O91      O      0.420450000000     0.906070000000     0.915610000000    -0.61212    
O92      O      0.545630000000     0.902900000000     0.919600000000    -0.468289   
O93      O      0.416790000000     0.048600000000     0.908320000000    -0.473993   
O94      O      0.542800000000     0.906630000000     0.064060000000    -0.621303   
O95      O      0.551560000000     0.045740000000     0.912900000000    -0.621519   
O96      O      0.408070000000     0.908760000000     0.060210000000    -0.473599   
Zr1      Zr     0.850860000000     0.998180000000     0.490180000000     1.28846    
Zr2      Zr     0.007210000000     0.099720000000     0.484650000000     1.29947    
Zr3      Zr     0.952150000000     0.847070000000     0.490500000000     1.29303    
Zr4      Zr     0.107780000000     0.948380000000     0.484550000000     1.28916    
Zr5      Zr     0.977350000000     0.972230000000     0.368260000000     1.26377    
Zr6      Zr     0.981190000000     0.975150000000     0.607220000000     1.25685    
Zr7      Zr     0.981300000000     0.475820000000     0.113080000000     1.29159    
Zr8      Zr     0.848450000000     0.476280000000     0.982260000000     1.29038    
Zr9      Zr     0.109720000000     0.479240000000     0.981380000000     1.28777    
Zr10     Zr     0.976210000000     0.482490000000     0.850610000000     1.28659    
Zr11     Zr     0.981330000000     0.361130000000     0.979360000000     1.26635    
Zr12     Zr     0.977140000000     0.596190000000     0.984280000000     1.25747    
Zr13     Zr     0.481810000000     0.106650000000     0.978840000000     1.29405    
Zr14     Zr     0.474260000000     0.979370000000     0.117370000000     1.28954    
Zr15     Zr     0.485930000000     0.975930000000     0.855230000000     1.29243    
Zr16     Zr     0.478520000000     0.847890000000     0.994130000000     1.28656    
Zr17     Zr     0.599260000000     0.974540000000     0.989900000000     1.26083    
Zr18     Zr     0.361140000000     0.979490000000     0.981920000000     1.2544     


