data_structure

_audit_creation_method RASPA-1.0
_audit_creation_date 2023-6-5
_audit_author_name 'Poobodin Mano'

_cell_length_a    21.402
_cell_length_b    21.4309
_cell_length_c    21.4139
_cell_angle_alpha 89.2564
_cell_angle_beta  89.2563
_cell_angle_gamma 89.2563
_cell_volume      9819.33

_symmetry_cell_setting          triclinic
_symmetry_space_group_name_Hall 'P 1'
_symmetry_space_group_name_H-M  'P 1'
_symmetry_Int_Tables_number     1

_symmetry_equiv_pos_as_xyz 'x,y,z'

loop_
_atom_site_label
_atom_site_type_symbol
_atom_site_fract_x
_atom_site_fract_y
_atom_site_fract_z
_atom_site_charge
C1       C      0.813540000000     0.973970000000     0.321800000000     0.384595   
C2       C      0.983330000000     0.124130000000     0.641560000000     0.377905   
C3       C      0.969910000000     0.122910000000     0.316080000000     0.386628   
C4       C      0.824070000000     0.971730000000     0.647050000000     0.390822   
C5       C      0.983860000000     0.817890000000     0.645510000000     0.384581   
C6       C      0.122080000000     0.967960000000     0.311940000000     0.390245   
C7       C      0.132960000000     0.969380000000     0.636470000000     0.390191   
C8       C      0.970020000000     0.814230000000     0.318340000000     0.377549   
C9       C      0.971130000000     0.307400000000     0.133300000000     0.39297    
C10      C      0.821490000000     0.633810000000     0.961020000000     0.39613    
C11      C      0.819180000000     0.307620000000     0.973850000000     0.381034   
C12      C      0.971500000000     0.632920000000     0.132810000000     0.387092   
C13      C      0.128370000000     0.631400000000     0.982590000000     0.37981    
C14      C      0.989260000000     0.308180000000     0.823860000000     0.384715   
C15      C      0.995150000000     0.634370000000     0.827360000000     0.398472   
C16      C      0.127270000000     0.306920000000     0.984320000000     0.3926     
C17      C      0.634120000000     0.124960000000     0.980710000000     0.376151   
C18      C      0.306310000000     0.971540000000     0.129150000000     0.399692   
C19      C      0.632380000000     0.968610000000     0.136230000000     0.378831   
C20      C      0.309190000000     0.122010000000     0.973150000000     0.40157    
C21      C      0.314210000000     0.971260000000     0.821210000000     0.382516   
C22      C      0.636380000000     0.815670000000     0.972860000000     0.387757   
C23      C      0.308720000000     0.815290000000     0.978600000000     0.388293   
C24      C      0.639620000000     0.976970000000     0.828590000000     0.395709   
C25      C      0.668560000000     0.709530000000     0.968720000000     0.0277144  
C26      C      0.743990000000     0.788290000000     0.959060000000     0.00553943 
C27      C      0.715170000000     0.664340000000     0.963960000000     0.0323442  
C28      C      0.791360000000     0.742890000000     0.952420000000     0.133641   
C29      C      0.665710000000     0.231760000000     0.977090000000     0.0281802  
C30      C      0.742410000000     0.152560000000     0.980460000000     0.00689425 
C31      C      0.712400000000     0.276940000000     0.974530000000     0.0298927  
C32      C      0.789870000000     0.197660000000     0.976980000000     0.128604   
C33      C      0.164810000000     0.729540000000     0.943750000000     0.00261202 
C34      C      0.224590000000     0.671010000000     0.016550000000     0.00922305 
C35      C      0.209860000000     0.777290000000     0.945170000000     0.0587426  
C36      C      0.269460000000     0.717930000000     0.017980000000     0.136614   
C37      C      0.233450000000     0.274390000000     0.985270000000     0.0293548  
C38      C      0.154640000000     0.199560000000     0.975070000000     0.0078088  
C39      C      0.278630000000     0.227840000000     0.980820000000     0.0366209  
C40      C      0.199930000000     0.152320000000     0.969400000000     0.13529    
C41      C      0.793710000000     0.963260000000     0.754380000000     0.0317499  
C42      C      0.720580000000     0.995210000000     0.678580000000     0.000491262
C43      C      0.746770000000     0.965520000000     0.800160000000     0.0375734  
C44      C      0.674430000000     0.001060000000     0.724430000000     0.135328   
C45      C      0.207240000000     0.965580000000     0.790380000000     0.033718   
C46      C      0.286480000000     0.973980000000     0.713860000000     0.00563033 
C47      C      0.162260000000     0.965170000000     0.743510000000     0.0375284  
C48      C      0.242040000000     0.971910000000     0.666510000000     0.133216   
C49      C      0.152260000000     0.960510000000     0.204370000000     0.034422   
C50      C      0.226440000000     0.985350000000     0.280270000000     0.00766993 
C51      C      0.199100000000     0.962550000000     0.158310000000     0.0405276  
C52      C      0.272600000000     0.990460000000     0.234430000000     0.133423   
C53      C      0.739740000000     0.969100000000     0.167370000000     0.0304596  
C54      C      0.660000000000     0.974970000000     0.243530000000     0.00658896 
C55      C      0.784710000000     0.971160000000     0.214400000000     0.0336961  
C56      C      0.704570000000     0.978760000000     0.290830000000     0.128771   
C57      C      0.982510000000     0.154080000000     0.749470000000     0.0329751  
C58      C      0.997470000000     0.229940000000     0.670780000000     0.000558378
C59      C      0.985380000000     0.200650000000     0.794990000000     0.0354405  
C60      C      0.002290000000     0.276470000000     0.715930000000     0.134694   
C61      C      0.979690000000     0.712300000000     0.677540000000     0.0291177  
C62      C      0.011050000000     0.787480000000     0.750070000000     0.0111141  
C63      C      0.984640000000     0.666240000000     0.722810000000     0.0376994  
C64      C      0.019120000000     0.740260000000     0.795840000000     0.138902   
C65      C      0.965830000000     0.707950000000     0.286240000000     0.0270499  
C66      C      0.976700000000     0.787130000000     0.210150000000     0.00612028 
C67      C      0.966690000000     0.663090000000     0.239410000000     0.0333763  
C68      C      0.979420000000     0.742130000000     0.162640000000     0.132397   
C69      C      0.958360000000     0.154220000000     0.209360000000     0.0335624  
C70      C      0.987530000000     0.227400000000     0.284490000000     0.00248775 
C71      C      0.959620000000     0.201030000000     0.163420000000     0.0354188  
C72      C      0.991980000000     0.273660000000     0.238430000000     0.129602   
H1       H      0.880230000000     0.066910000000     0.571150000000     0.211933   
H2       H      0.067980000000     0.064700000000     0.382300000000     0.210473   
H3       H      0.071410000000     0.872240000000     0.565430000000     0.214192   
H4       H      0.872840000000     0.873810000000     0.390910000000     0.207536   
H5       H      0.086250000000     0.170090000000     0.465230000000     0.133819   
H6       H      0.189180000000     0.078050000000     0.476840000000     0.205467   
H7       H      0.164000000000     0.857950000000     0.434790000000     0.155879   
H8       H      0.090930000000     0.770450000000     0.503280000000     0.20633    
H9       H      0.855990000000     0.773320000000     0.481510000000     0.129933   
H10      H      0.758910000000     0.859480000000     0.476650000000     0.196832   
H11      H      0.787470000000     0.087350000000     0.454380000000     0.158517   
H12      H      0.871490000000     0.182720000000     0.523520000000     0.207576   
H13      H      0.049850000000     0.726820000000     0.454760000000     0.214376   
H14      H      0.714150000000     0.919760000000     0.499770000000     0.228418   
H15      H      0.868890000000     0.184340000000     0.445470000000     0.213055   
H16      H      0.233090000000     0.015610000000     0.458280000000     0.231981   
H17      H      0.870940000000     0.560390000000     0.067040000000     0.213319   
H18      H      0.884640000000     0.377830000000     0.875710000000     0.20894    
H19      H      0.078020000000     0.556440000000     0.888870000000     0.216234   
H20      H      0.064460000000     0.376300000000     0.081540000000     0.217277   
H21      H      0.781000000000     0.467020000000     0.852700000000     0.130492   
H22      H      0.874770000000     0.462630000000     0.760660000000     0.194755   
H23      H      0.105980000000     0.449740000000     0.804000000000     0.153761   
H24      H      0.194130000000     0.511110000000     0.889820000000     0.206466   
H25      H      0.163390000000     0.462000000000     0.107200000000     0.135338   
H26      H      0.066380000000     0.475390000000     0.204220000000     0.208816   
H27      H      0.855530000000     0.428080000000     0.169930000000     0.154572   
H28      H      0.748070000000     0.513890000000     0.061460000000     0.205622   
H29      H      0.201390000000     0.433440000000     0.894520000000     0.212269   
H30      H      0.998340000000     0.473700000000     0.243610000000     0.223634   
H31      H      0.760260000000     0.437880000000     0.076190000000     0.210222   
H32      H      0.936830000000     0.484520000000     0.717710000000     0.222315   
H33      H      0.381190000000     0.063480000000     0.072630000000     0.219973   
H34      H      0.565240000000     0.869910000000     0.076800000000     0.209003   
H35      H      0.387580000000     0.873410000000     0.881420000000     0.212402   
H36      H      0.566970000000     0.067620000000     0.883240000000     0.217156   
H37      H      0.452480000000     0.852220000000     0.177580000000     0.141125   
H38      H      0.476150000000     0.755980000000     0.095540000000     0.203572   
H39      H      0.507160000000     0.778550000000     0.867960000000     0.151295   
H40      H      0.522010000000     0.865660000000     0.770440000000     0.213922   
H41      H      0.464820000000     0.081930000000     0.774900000000     0.139697   
H42      H      0.480790000000     0.182210000000     0.863320000000     0.197347   
H43      H      0.506520000000     0.166270000000     0.083640000000     0.151999   
H44      H      0.464170000000     0.089800000000     0.169680000000     0.215722   
H45      H      0.444110000000     0.866730000000     0.764840000000     0.208606   
H46      H      0.468240000000     0.228890000000     0.924440000000     0.210591   
H47      H      0.479390000000     0.037360000000     0.226170000000     0.232525   
H48      H      0.477730000000     0.708550000000     0.034020000000     0.221839   
H49      H      0.700550000000     0.616140000000     0.967500000000     0.0388305  
H50      H      0.620920000000     0.693620000000     0.974610000000     0.038758   
H51      H      0.756720000000     0.837000000000     0.954710000000     0.0670784  
H52      H      0.696980000000     0.325310000000     0.972810000000     0.0415843  
H53      H      0.617540000000     0.248060000000     0.976650000000     0.0386545  
H54      H      0.756480000000     0.103760000000     0.981770000000     0.0671937  
H55      H      0.204570000000     0.816600000000     0.913180000000     0.0438155  
H56      H      0.130620000000     0.727260000000     0.904890000000     0.149589   
H57      H      0.230620000000     0.630650000000     0.047130000000     0.068259   
H58      H      0.326840000000     0.242210000000     0.984400000000     0.0410456  
H59      H      0.249300000000     0.321800000000     0.991090000000     0.0430641  
H60      H      0.105980000000     0.186800000000     0.970980000000     0.071792   
H61      H      0.759060000000     0.951620000000     0.847360000000     0.0484495  
H62      H      0.840310000000     0.948690000000     0.768120000000     0.0506478  
H63      H      0.709040000000     0.010320000000     0.631500000000     0.070122   
H64      H      0.113810000000     0.961620000000     0.758420000000     0.0504788  
H65      H      0.191190000000     0.961380000000     0.838430000000     0.0600451  
H66      H      0.335220000000     0.976930000000     0.699690000000     0.0695072  
H67      H      0.186260000000     0.951690000000     0.110890000000     0.0567764  
H68      H      0.105240000000     0.949130000000     0.190560000000     0.0511414  
H69      H      0.238920000000     0.997510000000     0.327500000000     0.0614747  
H70      H      0.833350000000     0.968750000000     0.199740000000     0.0480251  
H71      H      0.756090000000     0.965740000000     0.119380000000     0.0492806  
H72      H      0.611120000000     0.977980000000     0.257380000000     0.0658682  
H73      H      0.980300000000     0.186110000000     0.843380000000     0.0594465  
H74      H      0.975410000000     0.106380000000     0.765180000000     0.0506049  
H75      H      0.004570000000     0.243680000000     0.622290000000     0.0719459  
H76      H      0.971710000000     0.619560000000     0.709370000000     0.0407388  
H77      H      0.964470000000     0.698240000000     0.631750000000     0.0456799  
H78      H      0.024590000000     0.834630000000     0.761100000000     0.0656954  
H79      H      0.961700000000     0.614900000000     0.254480000000     0.0405807  
H80      H      0.960750000000     0.691650000000     0.334150000000     0.0403901  
H81      H      0.982260000000     0.835720000000     0.196620000000     0.0672728  
H82      H      0.946700000000     0.188510000000     0.116460000000     0.0578049  
H83      H      0.945470000000     0.107600000000     0.195760000000     0.0497213  
H84      H      0.001690000000     0.239230000000     0.331290000000     0.0698939  
N1       N      0.682920000000     0.771490000000     0.967460000000    -0.167885   
N2       N      0.776820000000     0.680410000000     0.957930000000    -0.182522   
N3       N      0.852820000000     0.763290000000     0.934520000000    -0.0268982  
N4       N      0.680450000000     0.169390000000     0.979890000000    -0.164077   
N5       N      0.774790000000     0.260760000000     0.974630000000    -0.177829   
N6       N      0.853170000000     0.175310000000     0.972710000000    -0.026052   
N7       N      0.172200000000     0.677540000000     0.981160000000    -0.154572   
N8       N      0.262420000000     0.771020000000     0.981490000000    -0.181692   
N9       N      0.318700000000     0.711650000000     0.062870000000    -0.0270901  
N10      N      0.171500000000     0.260370000000     0.982290000000    -0.167197   
N11      N      0.262490000000     0.166610000000     0.973560000000    -0.182848   
N12      N      0.179160000000     0.091080000000     0.954190000000    -0.0264454  
N13      N      0.779810000000     0.976040000000     0.693390000000    -0.166737   
N14      N      0.686660000000     0.981980000000     0.784810000000    -0.184655   
N15      N      0.617770000000     0.033790000000     0.708220000000    -0.0256313  
N16      N      0.269380000000     0.970660000000     0.775630000000    -0.163043   
N17      N      0.178980000000     0.968650000000     0.681350000000    -0.179409   
N18      N      0.265100000000     0.971380000000     0.603360000000    -0.028256   
N19      N      0.166510000000     0.970510000000     0.265470000000    -0.167698   
N20      N      0.259630000000     0.975580000000     0.173540000000    -0.181027   
N21      N      0.330320000000     0.018600000000     0.251510000000    -0.0248461  
N22      N      0.677260000000     0.970490000000     0.181900000000    -0.164118   
N23      N      0.767760000000     0.975240000000     0.276450000000    -0.178884   
N24      N      0.681760000000     0.990080000000     0.352970000000    -0.0276801  
N25      N      0.987340000000     0.168900000000     0.687160000000    -0.162742   
N26      N      0.993190000000     0.262340000000     0.778660000000    -0.178413   
N27      N      0.021810000000     0.336990000000     0.694690000000    -0.0257115  
N28      N      0.990790000000     0.773160000000     0.691330000000    -0.166371   
N29      N      0.001100000000     0.680200000000     0.782580000000    -0.178083   
N30      N      0.052990000000     0.754290000000     0.852000000000    -0.0125468  
N31      N      0.970500000000     0.770130000000     0.271840000000    -0.164226   
N32      N      0.972900000000     0.679400000000     0.177320000000    -0.178438   
N33      N      0.993460000000     0.763530000000     0.100320000000    -0.0280308  
N34      N      0.971170000000     0.167860000000     0.270060000000    -0.166937   
N35      N      0.974690000000     0.261090000000     0.178090000000    -0.181562   
N36      N      0.022500000000     0.330500000000     0.254310000000    -0.0248046  
O1       O      0.796460000000     0.972230000000     0.380120000000    -0.338485   
O2       O      0.871790000000     0.973010000000     0.304140000000    -0.3457     
O3       O      0.984530000000     0.142650000000     0.583560000000    -0.35124    
O4       O      0.978690000000     0.065940000000     0.658300000000    -0.341614   
O5       O      0.974220000000     0.141200000000     0.373250000000    -0.362253   
O6       O      0.966070000000     0.065010000000     0.300290000000    -0.346925   
O7       O      0.804460000000     0.971940000000     0.590190000000    -0.35811    
O8       O      0.882420000000     0.969160000000     0.662040000000    -0.349192   
O9       O      0.773120000000     0.058900000000     0.488250000000    -0.318118   
O10      O      0.754590000000     0.902890000000     0.487770000000    -0.511883   
O11      O      0.887910000000     0.169300000000     0.483580000000    -0.516465   
O12      O      0.044060000000     0.188140000000     0.472850000000    -0.313787   
O13      O      0.901660000000     0.041320000000     0.418860000000    -0.468479   
O14      O      0.904900000000     0.040610000000     0.543760000000    -0.61347    
O15      O      0.976610000000     0.799260000000     0.588590000000    -0.353812   
O16      O      0.985790000000     0.875870000000     0.660920000000    -0.3479     
O17      O      0.141460000000     0.969610000000     0.368840000000    -0.368354   
O18      O      0.063750000000     0.965860000000     0.297060000000    -0.347546   
O19      O      0.149650000000     0.972130000000     0.578220000000    -0.332726   
O20      O      0.074920000000     0.967520000000     0.654530000000    -0.342595   
O21      O      0.968920000000     0.794990000000     0.376170000000    -0.3548     
O22      O      0.970770000000     0.872760000000     0.302220000000    -0.344012   
O23      O      0.053810000000     0.764230000000     0.479030000000    -0.511346   
O24      O      0.897700000000     0.753620000000     0.486900000000    -0.326936   
O25      O      0.170900000000     0.878200000000     0.475380000000    -0.325513   
O26      O      0.192870000000     0.033870000000     0.468820000000    -0.511274   
O27      O      0.044360000000     0.897990000000     0.539810000000    -0.614268   
O28      O      0.041410000000     0.897660000000     0.415590000000    -0.465756   
O29      O      0.902700000000     0.899100000000     0.550670000000    -0.471632   
O30      O      0.042730000000     0.039340000000     0.410140000000    -0.62257    
O31      O      0.899340000000     0.898850000000     0.416510000000    -0.628446   
O32      O      0.047410000000     0.040220000000     0.543770000000    -0.473839   
O33      O      0.969140000000     0.364760000000     0.151720000000    -0.348895   
O34      O      0.970290000000     0.291540000000     0.075160000000    -0.343238   
O35      O      0.802850000000     0.576610000000     0.958330000000    -0.360932   
O36      O      0.879010000000     0.648830000000     0.969570000000    -0.33076    
O37      O      0.799990000000     0.365380000000     0.969280000000    -0.353353   
O38      O      0.877730000000     0.292460000000     0.978480000000    -0.327801   
O39      O      0.970380000000     0.575240000000     0.152160000000    -0.349805   
O40      O      0.970770000000     0.648310000000     0.074100000000    -0.322838   
O41      O      0.868840000000     0.472130000000     0.167710000000    -0.337861   
O42      O      0.021380000000     0.472240000000     0.204540000000    -0.503305   
O43      O      0.769290000000     0.475040000000     0.051850000000    -0.512075   
O44      O      0.760030000000     0.469830000000     0.894080000000    -0.322198   
O45      O      0.898470000000     0.408020000000     0.044990000000    -0.468009   
O46      O      0.898300000000     0.533020000000     0.043420000000    -0.611308   
O47      O      0.147240000000     0.574470000000     0.993290000000    -0.350792   
O48      O      0.070570000000     0.647180000000     0.973760000000    -0.317804   
O49      O      0.988760000000     0.366020000000     0.805560000000    -0.338383   
O50      O      0.983810000000     0.291750000000     0.882350000000    -0.333981   
O51      O      0.991320000000     0.577180000000     0.808750000000    -0.35671    
O52      O      0.990140000000     0.650460000000     0.885040000000    -0.320261   
O53      O      0.146270000000     0.363820000000     0.988330000000    -0.363491   
O54      O      0.069230000000     0.291700000000     0.980980000000    -0.347788   
O55      O      0.182150000000     0.471820000000     0.908780000000    -0.516763   
O56      O      0.185690000000     0.464940000000     0.066480000000    -0.318379   
O57      O      0.072980000000     0.472580000000     0.780770000000    -0.313382   
O58      O      0.918440000000     0.473280000000     0.757680000000    -0.513441   
O59      O      0.049610000000     0.530800000000     0.913030000000    -0.618101   
O60      O      0.050090000000     0.407700000000     0.913590000000    -0.466162   
O61      O      0.040480000000     0.536740000000     0.055050000000    -0.474648   
O62      O      0.908060000000     0.404500000000     0.902610000000    -0.629455   
O63      O      0.039760000000     0.403180000000     0.054690000000    -0.622482   
O64      O      0.907970000000     0.538370000000     0.901990000000    -0.472291   
O65      O      0.576340000000     0.144010000000     0.978230000000    -0.359269   
O66      O      0.650230000000     0.066310000000     0.982740000000    -0.339447   
O67      O      0.363380000000     0.968690000000     0.148270000000    -0.3402     
O68      O      0.291200000000     0.970020000000     0.070890000000    -0.342051   
O69      O      0.574200000000     0.966970000000     0.153960000000    -0.350586   
O70      O      0.649960000000     0.968870000000     0.078010000000    -0.344099   
O71      O      0.366400000000     0.140940000000     0.971670000000    -0.358268   
O72      O      0.294190000000     0.063930000000     0.976420000000    -0.332581   
O73      O      0.464680000000     0.168120000000     0.064470000000    -0.338692   
O74      O      0.473940000000     0.187540000000     0.907640000000    -0.513283   
O75      O      0.470930000000     0.047010000000     0.182870000000    -0.506137   
O76      O      0.467510000000     0.891560000000     0.195520000000    -0.318283   
O77      O      0.532850000000     0.038670000000     0.050450000000    -0.469121   
O78      O      0.408620000000     0.037610000000     0.047470000000    -0.611668   
O79      O      0.372280000000     0.973930000000     0.803470000000    -0.355111   
O80      O      0.296610000000     0.968530000000     0.879310000000    -0.335205   
O81      O      0.579170000000     0.796630000000     0.975370000000    -0.364192   
O82      O      0.651870000000     0.873750000000     0.974730000000    -0.350828   
O83      O      0.366450000000     0.796410000000     0.984360000000    -0.329843   
O84      O      0.292690000000     0.873410000000     0.971310000000    -0.338483   
O85      O      0.582660000000     0.976580000000     0.808990000000    -0.346163   
O86      O      0.654420000000     0.972360000000     0.886840000000    -0.350492   
O87      O      0.481910000000     0.884010000000     0.781280000000    -0.51406    
O88      O      0.474370000000     0.039950000000     0.758220000000    -0.297131   
O89      O      0.470950000000     0.767130000000     0.894790000000    -0.332312   
O90      O      0.476360000000     0.750160000000     0.050870000000    -0.510912   
O91      O      0.413270000000     0.898810000000     0.907480000000    -0.617845   
O92      O      0.537690000000     0.899190000000     0.910140000000    -0.467254   
O93      O      0.406760000000     0.041320000000     0.905850000000    -0.472772   
O94      O      0.538510000000     0.895910000000     0.051050000000    -0.624466   
O95      O      0.540230000000     0.040940000000     0.908220000000    -0.626412   
O96      O      0.403970000000     0.896040000000     0.050160000000    -0.471029   
O97      O      0.876480000000     0.811960000000     0.960620000000    -0.0793924  
O98      O      0.879020000000     0.741800000000     0.883870000000    -0.0793175  
O99      O      0.883830000000     0.181810000000     0.920260000000    -0.096327   
O100     O      0.874250000000     0.136310000000     0.014710000000    -0.0985876  
O101     O      0.345580000000     0.657630000000     0.072490000000    -0.105899   
O102     O      0.329290000000     0.756840000000     0.101210000000    -0.0963528  
O103     O      0.194030000000     0.068020000000     0.900050000000    -0.0884332  
O104     O      0.135010000000     0.065110000000     0.987340000000    -0.0922131  
O105     O      0.589990000000     0.021840000000     0.656090000000    -0.0886997  
O106     O      0.601150000000     0.083290000000     0.739160000000    -0.103266   
O107     O      0.265740000000     0.919280000000     0.572820000000    -0.0893924  
O108     O      0.298460000000     0.017670000000     0.582480000000    -0.0956113  
O109     O      0.359690000000     0.999000000000     0.300990000000    -0.099351   
O110     O      0.346030000000     0.071440000000     0.225590000000    -0.104258   
O111     O      0.640950000000     0.952680000000     0.378240000000    -0.101388   
O112     O      0.690300000000     0.044390000000     0.377660000000    -0.0906161  
O113     O      0.992620000000     0.364860000000     0.649050000000    -0.105527   
O114     O      0.076130000000     0.357300000000     0.711080000000    -0.08859    
O115     O      0.037650000000     0.802980000000     0.884800000000    -0.0836765  
O116     O      0.102620000000     0.721090000000     0.866460000000    -0.187254   
O117     O      0.046370000000     0.747440000000     0.074170000000    -0.072616   
O118     O      0.961400000000     0.809710000000     0.076320000000    -0.0797292  
O119     O      0.072960000000     0.346510000000     0.223920000000    -0.111219   
O120     O      0.008550000000     0.358070000000     0.306540000000    -0.108126   
Zr1      Zr     0.844390000000     0.969510000000     0.483920000000     1.30609    
Zr2      Zr     0.975970000000     0.098150000000     0.478880000000     1.30103    
Zr3      Zr     0.969910000000     0.840370000000     0.481440000000     1.29555    
Zr4      Zr     0.101640000000     0.969300000000     0.475280000000     1.31124    
Zr5      Zr     0.969730000000     0.969100000000     0.361670000000     1.26683    
Zr6      Zr     0.976660000000     0.969710000000     0.597930000000     1.26482    
Zr7      Zr     0.966120000000     0.470350000000     0.107410000000     1.30101    
Zr8      Zr     0.845410000000     0.470950000000     0.967970000000     1.2937     
Zr9      Zr     0.102790000000     0.469310000000     0.989780000000     1.30387    
Zr10     Zr     0.981800000000     0.470750000000     0.849870000000     1.30646    
Zr11     Zr     0.973970000000     0.352450000000     0.978900000000     1.2725     
Zr12     Zr     0.974560000000     0.587780000000     0.978010000000     1.28014    
Zr13     Zr     0.471770000000     0.097630000000     0.976280000000     1.30066    
Zr14     Zr     0.470020000000     0.964570000000     0.107560000000     1.30881    
Zr15     Zr     0.476080000000     0.972080000000     0.850100000000     1.30795    
Zr16     Zr     0.473190000000     0.839490000000     0.981480000000     1.29973    
Zr17     Zr     0.590860000000     0.969240000000     0.980980000000     1.26694    
Zr18     Zr     0.354830000000     0.968240000000     0.976450000000     1.27276    


