data_structure

_audit_creation_method RASPA-1.0
_audit_creation_date 2023-6-5
_audit_author_name 'Poobodin Mano'

_cell_length_a    21.49
_cell_length_b    21.4561
_cell_length_c    21.4504
_cell_angle_alpha 89.2564
_cell_angle_beta  89.2563
_cell_angle_gamma 89.2563
_cell_volume      9888.12

_symmetry_cell_setting          triclinic
_symmetry_space_group_name_Hall 'P 1'
_symmetry_space_group_name_H-M  'P 1'
_symmetry_Int_Tables_number     1

_symmetry_equiv_pos_as_xyz 'x,y,z'

loop_
_atom_site_label
_atom_site_type_symbol
_atom_site_fract_x
_atom_site_fract_y
_atom_site_fract_z
_atom_site_charge
C1       C      0.816430000000     0.971430000000     0.310710000000     0.373746   
C2       C      0.970840000000     0.125560000000     0.635980000000     0.376657   
C3       C      0.963240000000     0.121970000000     0.310090000000     0.386134   
C4       C      0.815610000000     0.966490000000     0.636820000000     0.389156   
C5       C      0.967420000000     0.818530000000     0.639310000000     0.388724   
C6       C      0.124880000000     0.963780000000     0.313490000000     0.387489   
C7       C      0.121880000000     0.972760000000     0.638070000000     0.378574   
C8       C      0.972910000000     0.813860000000     0.314550000000     0.374587   
C9       C      0.956820000000     0.307540000000     0.128380000000     0.386238   
C10      C      0.820940000000     0.638190000000     0.968390000000     0.385235   
C11      C      0.810560000000     0.312220000000     0.973860000000     0.373856   
C12      C      0.974380000000     0.632180000000     0.129680000000     0.377849   
C13      C      0.129230000000     0.626710000000     0.977880000000     0.375107   
C14      C      0.971930000000     0.309640000000     0.818600000000     0.376463   
C15      C      0.972430000000     0.633490000000     0.821620000000     0.390782   
C16      C      0.117050000000     0.301780000000     0.973350000000     0.388487   
C17      C      0.626250000000     0.129840000000     0.973730000000     0.374841   
C18      C      0.306920000000     0.962270000000     0.128160000000     0.38745    
C19      C      0.631490000000     0.972940000000     0.128630000000     0.372288   
C20      C      0.302340000000     0.119710000000     0.970630000000     0.389536   
C21      C      0.307210000000     0.970600000000     0.819390000000     0.377427   
C22      C      0.635390000000     0.820300000000     0.971990000000     0.386011   
C23      C      0.310830000000     0.811770000000     0.978790000000     0.377542   
C24      C      0.630680000000     0.967650000000     0.819220000000     0.387564   
C25      C      0.668510000000     0.714530000000     0.973520000000     0.0290014  
C26      C      0.743350000000     0.793410000000     0.964410000000     0.0255965  
C27      C      0.715280000000     0.669560000000     0.972190000000     0.0264857  
C28      C      0.791040000000     0.748150000000     0.962420000000     0.0487318  
C29      C      0.853410000000     0.770740000000     0.951580000000     0.0615373  
C30      C      0.779740000000     0.205020000000     0.973310000000     0.0288758  
C31      C      0.703330000000     0.284190000000     0.976110000000     0.0217487  
C32      C      0.733030000000     0.159830000000     0.973330000000     0.0271097  
C33      C      0.656200000000     0.239370000000     0.976650000000     0.0455954  
C34      C      0.593090000000     0.263720000000     0.980820000000     0.0520673  
C35      C      0.203980000000     0.780600000000     0.975790000000     0.032121   
C36      C      0.283060000000     0.704320000000     0.981850000000     0.0252936  
C37      C      0.159080000000     0.733660000000     0.975250000000     0.0271755  
C38      C      0.238510000000     0.656940000000     0.981230000000     0.046244   
C39      C      0.263080000000     0.593730000000     0.983110000000     0.0561448  
C40      C      0.269240000000     0.225340000000     0.967670000000     0.0313406  
C41      C      0.194170000000     0.146370000000     0.972580000000     0.0258825  
C42      C      0.222540000000     0.270270000000     0.968530000000     0.0276226  
C43      C      0.146430000000     0.191560000000     0.973280000000     0.0484121  
C44      C      0.083310000000     0.168690000000     0.976450000000     0.0578751  
C45      C      0.784510000000     0.970290000000     0.743970000000     0.0312251  
C46      C      0.709710000000     0.956840000000     0.666200000000     0.0263147  
C47      C      0.737430000000     0.970310000000     0.789360000000     0.028896   
C48      C      0.662420000000     0.956340000000     0.711060000000     0.0474755  
C49      C      0.600560000000     0.945090000000     0.687780000000     0.0552013  
C50      C      0.152560000000     0.971630000000     0.745760000000     0.030242   
C51      C      0.228610000000     0.972210000000     0.666190000000     0.0252844  
C52      C      0.199760000000     0.970900000000     0.790740000000     0.0290711  
C53      C      0.275940000000     0.971050000000     0.710450000000     0.0468496  
C54      C      0.338740000000     0.968440000000     0.685040000000     0.0542756  
C55      C      0.199850000000     0.964430000000     0.159250000000     0.0314366  
C56      C      0.278000000000     0.953470000000     0.234690000000     0.0227359  
C57      C      0.154580000000     0.964550000000     0.206450000000     0.0279863  
C58      C      0.233260000000     0.953160000000     0.282140000000     0.0474549  
C59      C      0.256870000000     0.943540000000     0.344640000000     0.0526693  
C60      C      0.663590000000     0.971710000000     0.235050000000     0.0262619  
C61      C      0.739620000000     0.974590000000     0.155510000000     0.0237731  
C62      C      0.710240000000     0.971370000000     0.279980000000     0.0259632  
C63      C      0.787070000000     0.974140000000     0.200480000000     0.0469055  
C64      C      0.850400000000     0.975700000000     0.176640000000     0.0588268  
C65      C      0.967070000000     0.155880000000     0.743580000000     0.0301277  
C66      C      0.979170000000     0.231960000000     0.664820000000     0.0220099  
C67      C      0.967710000000     0.202610000000     0.788940000000     0.0272848  
C68      C      0.980520000000     0.278880000000     0.709650000000     0.0467124  
C69      C      0.991380000000     0.341260000000     0.685470000000     0.0522007  
C70      C      0.965910000000     0.666030000000     0.715890000000     0.0325997  
C71      C      0.975800000000     0.741200000000     0.794060000000     0.0257921  
C72      C      0.964280000000     0.712810000000     0.670850000000     0.0259554  
C73      C      0.973710000000     0.788880000000     0.749020000000     0.049457   
C74      C      0.977910000000     0.851940000000     0.771880000000     0.061584   
C75      C      0.969110000000     0.707500000000     0.282810000000     0.0266092  
C76      C      0.980970000000     0.786440000000     0.206860000000     0.0243152  
C77      C      0.969700000000     0.662570000000     0.236100000000     0.0282856  
C78      C      0.982580000000     0.741480000000     0.159570000000     0.0489945  
C79      C      0.995130000000     0.764570000000     0.097070000000     0.0612623  
C80      C      0.963520000000     0.153000000000     0.202680000000     0.0311238  
C81      C      0.947540000000     0.227640000000     0.281000000000     0.0235531  
C82      C      0.961130000000     0.200270000000     0.157370000000     0.0283003  
C83      C      0.944180000000     0.274980000000     0.236220000000     0.0476989  
C84      C      0.928310000000     0.336440000000     0.259450000000     0.0507752  
H1       H      0.871500000000     0.066570000000     0.562040000000     0.211707   
H2       H      0.065730000000     0.066500000000     0.379840000000     0.203559   
H3       H      0.064710000000     0.874980000000     0.565010000000     0.212704   
H4       H      0.874460000000     0.873030000000     0.382680000000     0.20671    
H5       H      0.080370000000     0.170750000000     0.465880000000     0.129689   
H6       H      0.182460000000     0.080050000000     0.447730000000     0.191798   
H7       H      0.161480000000     0.859130000000     0.444650000000     0.15315    
H8       H      0.072950000000     0.756150000000     0.517640000000     0.203768   
H9       H      0.858820000000     0.768930000000     0.474250000000     0.127977   
H10      H      0.757630000000     0.857120000000     0.468660000000     0.189582   
H11      H      0.777430000000     0.080370000000     0.436650000000     0.149985   
H12      H      0.869360000000     0.188560000000     0.515810000000     0.203763   
H13      H      0.079260000000     0.761930000000     0.439980000000     0.207326   
H14      H      0.710480000000     0.919120000000     0.478010000000     0.208128   
H15      H      0.859560000000     0.179850000000     0.439220000000     0.206716   
H16      H      0.223630000000     0.029370000000     0.491120000000     0.216086   
H17      H      0.873640000000     0.562200000000     0.068830000000     0.21219    
H18      H      0.872170000000     0.381700000000     0.876130000000     0.204959   
H19      H      0.069410000000     0.556140000000     0.880190000000     0.209497   
H20      H      0.060120000000     0.372340000000     0.072800000000     0.206184   
H21      H      0.770730000000     0.474280000000     0.859550000000     0.129661   
H22      H      0.864280000000     0.452630000000     0.758450000000     0.191122   
H23      H      0.084010000000     0.434690000000     0.786210000000     0.154799   
H24      H      0.171060000000     0.496330000000     0.862190000000     0.201212   
H25      H      0.163420000000     0.466520000000     0.092970000000     0.131543   
H26      H      0.073390000000     0.443260000000     0.191210000000     0.191809   
H27      H      0.852160000000     0.440220000000     0.163050000000     0.153667   
H28      H      0.753750000000     0.518400000000     0.073300000000     0.202496   
H29      H      0.208060000000     0.436080000000     0.896090000000     0.21223    
H30      H      0.017250000000     0.477660000000     0.233840000000     0.214719   
H31      H      0.756150000000     0.440580000000     0.079070000000     0.206986   
H32      H      0.917460000000     0.493600000000     0.718320000000     0.214318   
H33      H      0.376890000000     0.063610000000     0.068870000000     0.211507   
H34      H      0.564840000000     0.875340000000     0.071610000000     0.205845   
H35      H      0.383670000000     0.872060000000     0.880350000000     0.213432   
H36      H      0.559460000000     0.068610000000     0.875110000000     0.205151   
H37      H      0.476370000000     0.858950000000     0.178730000000     0.128037   
H38      H      0.480190000000     0.759760000000     0.093320000000     0.189078   
H39      H      0.512290000000     0.777560000000     0.868740000000     0.149978   
H40      H      0.506450000000     0.857450000000     0.774110000000     0.211195   
H41      H      0.468490000000     0.082930000000     0.772210000000     0.129345   
H42      H      0.488930000000     0.185260000000     0.861240000000     0.192778   
H43      H      0.496970000000     0.164610000000     0.079900000000     0.152582   
H44      H      0.423410000000     0.071150000000     0.187050000000     0.203357   
H45      H      0.431230000000     0.870370000000     0.758930000000     0.21114    
H46      H      0.440060000000     0.223570000000     0.909030000000     0.214407   
H47      H      0.500320000000     0.080360000000     0.179320000000     0.206677   
H48      H      0.476200000000     0.711500000000     0.032820000000     0.208278   
H49      H      0.700530000000     0.621510000000     0.976200000000     0.0395501  
H50      H      0.621020000000     0.698390000000     0.977960000000     0.0360218  
H51      H      0.755860000000     0.842200000000     0.960350000000     0.0471085  
H52      H      0.748100000000     0.111450000000     0.971970000000     0.0431159  
H53      H      0.827760000000     0.188920000000     0.972040000000     0.0442305  
H54      H      0.689490000000     0.333030000000     0.977670000000     0.0446051  
H55      H      0.110890000000     0.748600000000     0.972030000000     0.0522678  
H56      H      0.187830000000     0.828640000000     0.973270000000     0.0441365  
H57      H      0.331810000000     0.690560000000     0.984270000000     0.0435038  
H58      H      0.237480000000     0.318350000000     0.966510000000     0.0397252  
H59      H      0.316830000000     0.241530000000     0.965320000000     0.0376888  
H60      H      0.181530000000     0.097510000000     0.974270000000     0.0466632  
H61      H      0.751300000000     0.976170000000     0.837330000000     0.0429334  
H62      H      0.832060000000     0.975880000000     0.759060000000     0.0458644  
H63      H      0.696840000000     0.950540000000     0.617860000000     0.0431556  
H64      H      0.185250000000     0.970660000000     0.839330000000     0.0443602  
H65      H      0.104570000000     0.971740000000     0.761940000000     0.0485768  
H66      H      0.242430000000     0.972320000000     0.617270000000     0.0440674  
H67      H      0.106470000000     0.969440000000     0.192330000000     0.0456584  
H68      H      0.184550000000     0.969020000000     0.111420000000     0.0433334  
H69      H      0.326490000000     0.948180000000     0.247810000000     0.0470907  
H70      H      0.694900000000     0.970060000000     0.328320000000     0.0376285  
H71      H      0.615720000000     0.970700000000     0.251590000000     0.0406467  
H72      H      0.753120000000     0.975910000000     0.106550000000     0.0468848  
H73      H      0.962630000000     0.187920000000     0.837270000000     0.0467594  
H74      H      0.961790000000     0.108000000000     0.759340000000     0.0449515  
H75      H      0.984500000000     0.245730000000     0.616130000000     0.0462302  
H76      H      0.959640000000     0.698030000000     0.623000000000     0.0424325  
H77      H      0.962360000000     0.618380000000     0.700180000000     0.0366922  
H78      H      0.981170000000     0.753850000000     0.842480000000     0.0548415  
H79      H      0.964490000000     0.614470000000     0.251170000000     0.0392736  
H80      H      0.963800000000     0.691330000000     0.330660000000     0.0410036  
H81      H      0.986420000000     0.835090000000     0.193470000000     0.050863   
H82      H      0.967510000000     0.186670000000     0.109180000000     0.0487293  
H83      H      0.971150000000     0.105510000000     0.187390000000     0.0474693  
H84      H      0.940540000000     0.240320000000     0.329510000000     0.0438971  
N1       N      0.682340000000     0.776480000000     0.970130000000    -0.172993   
N2       N      0.776860000000     0.685510000000     0.967380000000    -0.172354   
N3       N      0.911070000000     0.793590000000     0.940560000000    -0.0895966  
N4       N      0.764990000000     0.267320000000     0.974360000000    -0.168891   
N5       N      0.670910000000     0.176200000000     0.974610000000    -0.170145   
N6       N      0.534430000000     0.287550000000     0.985080000000    -0.0996236  
N7       N      0.266100000000     0.766040000000     0.979040000000    -0.168961   
N8       N      0.175490000000     0.671500000000     0.978200000000    -0.168164   
N9       N      0.287110000000     0.534960000000     0.984540000000    -0.0943445  
N10      N      0.255310000000     0.163410000000     0.970170000000    -0.172749   
N11      N      0.160890000000     0.254310000000     0.971720000000    -0.17318    
N12      N      0.024310000000     0.147000000000     0.979350000000    -0.095165   
N13      N      0.770390000000     0.964540000000     0.682350000000    -0.1723     
N14      N      0.676100000000     0.964560000000     0.773370000000    -0.173429   
N15      N      0.543390000000     0.934570000000     0.664340000000    -0.0904088  
N16      N      0.167030000000     0.972390000000     0.683380000000    -0.168379   
N17      N      0.261780000000     0.970850000000     0.773770000000    -0.169764   
N18      N      0.396810000000     0.965760000000     0.659630000000    -0.0880569  
N19      N      0.261560000000     0.959960000000     0.173570000000    -0.172535   
N20      N      0.170780000000     0.960230000000     0.268140000000    -0.173729   
N21      N      0.280390000000     0.934580000000     0.402490000000    -0.0974797  
N22      N      0.677970000000     0.973180000000     0.172680000000    -0.168443   
N23      N      0.772350000000     0.972360000000     0.263670000000    -0.169674   
N24      N      0.909630000000     0.977080000000     0.154010000000    -0.0945283  
N25      N      0.972210000000     0.170610000000     0.681380000000    -0.168881   
N26      N      0.973620000000     0.264500000000     0.772640000000    -0.169968   
N27      N      0.001850000000     0.399130000000     0.661690000000    -0.0973007  
N28      N      0.971570000000     0.680100000000     0.777460000000    -0.172586   
N29      N      0.968230000000     0.774440000000     0.686570000000    -0.173253   
N30      N      0.981640000000     0.910830000000     0.793710000000    -0.0943561  
N31      N      0.974180000000     0.769590000000     0.268360000000    -0.168714   
N32      N      0.975730000000     0.678750000000     0.174080000000    -0.169599   
N33      N      0.007980000000     0.787510000000     0.039230000000    -0.0876722  
N34      N      0.958320000000     0.167050000000     0.264530000000    -0.172346   
N35      N      0.953410000000     0.261620000000     0.173780000000    -0.173334   
N36      N      0.913470000000     0.393310000000     0.282660000000    -0.100302   
O1       O      0.796800000000     0.970390000000     0.368330000000    -0.358503   
O2       O      0.875090000000     0.971180000000     0.295900000000    -0.339621   
O3       O      0.973530000000     0.143760000000     0.578000000000    -0.355631   
O4       O      0.967030000000     0.067480000000     0.652860000000    -0.343242   
O5       O      0.963660000000     0.140260000000     0.367360000000    -0.363638   
O6       O      0.967160000000     0.064130000000     0.294020000000    -0.348549   
O7       O      0.797980000000     0.963920000000     0.579390000000    -0.357018   
O8       O      0.873010000000     0.971140000000     0.653220000000    -0.350361   
O9       O      0.769760000000     0.057690000000     0.476440000000    -0.336974   
O10      O      0.751900000000     0.901540000000     0.473500000000    -0.513509   
O11      O      0.882280000000     0.170170000000     0.476770000000    -0.513981   
O12      O      0.037780000000     0.188920000000     0.466800000000    -0.323746   
O13      O      0.899510000000     0.040540000000     0.410910000000    -0.468609   
O14      O      0.897630000000     0.040830000000     0.535620000000    -0.611109   
O15      O      0.965240000000     0.799140000000     0.582390000000    -0.361377   
O16      O      0.969650000000     0.876650000000     0.653450000000    -0.349529   
O17      O      0.141710000000     0.966280000000     0.370890000000    -0.363863   
O18      O      0.067190000000     0.965430000000     0.296700000000    -0.350144   
O19      O      0.140400000000     0.974270000000     0.580270000000    -0.354064   
O20      O      0.063600000000     0.971090000000     0.654590000000    -0.338307   
O21      O      0.970100000000     0.794900000000     0.372260000000    -0.356687   
O22      O      0.974150000000     0.872310000000     0.298270000000    -0.343647   
O23      O      0.057980000000     0.772660000000     0.478400000000    -0.514227   
O24      O      0.901380000000     0.751190000000     0.478200000000    -0.324444   
O25      O      0.169730000000     0.884280000000     0.481950000000    -0.328989   
O26      O      0.185410000000     0.040990000000     0.470500000000    -0.513322   
O27      O      0.039070000000     0.900490000000     0.537890000000    -0.611928   
O28      O      0.041140000000     0.899700000000     0.413420000000    -0.468494   
O29      O      0.898210000000     0.899730000000     0.542580000000    -0.470848   
O30      O      0.040210000000     0.041120000000     0.407240000000    -0.620788   
O31      O      0.899530000000     0.898550000000     0.409040000000    -0.627104   
O32      O      0.039760000000     0.042860000000     0.540870000000    -0.475544   
O33      O      0.959880000000     0.364700000000     0.146090000000    -0.361818   
O34      O      0.958880000000     0.291420000000     0.070380000000    -0.347343   
O35      O      0.801210000000     0.581420000000     0.966240000000    -0.359997   
O36      O      0.879110000000     0.651890000000     0.972930000000    -0.343098   
O37      O      0.793230000000     0.370520000000     0.972710000000    -0.355824   
O38      O      0.868440000000     0.294380000000     0.974270000000    -0.345524   
O39      O      0.973460000000     0.574450000000     0.148900000000    -0.349927   
O40      O      0.973170000000     0.647650000000     0.071130000000    -0.339257   
O41      O      0.876500000000     0.478030000000     0.171290000000    -0.332256   
O42      O      0.032420000000     0.462160000000     0.194300000000    -0.512636   
O43      O      0.769160000000     0.478670000000     0.058520000000    -0.513876   
O44      O      0.752070000000     0.477600000000     0.901850000000    -0.324443   
O45      O      0.895790000000     0.409630000000     0.044380000000    -0.467901   
O46      O      0.899030000000     0.534540000000     0.043660000000    -0.611869   
O47      O      0.145480000000     0.568380000000     0.980500000000    -0.347705   
O48      O      0.071370000000     0.644820000000     0.974900000000    -0.338659   
O49      O      0.972260000000     0.367580000000     0.801310000000    -0.357238   
O50      O      0.969130000000     0.292470000000     0.876930000000    -0.340198   
O51      O      0.969180000000     0.576630000000     0.802680000000    -0.360348   
O52      O      0.975910000000     0.648660000000     0.879600000000    -0.349939   
O53      O      0.136960000000     0.358470000000     0.974940000000    -0.36245    
O54      O      0.058740000000     0.288210000000     0.973400000000    -0.347885   
O55      O      0.173840000000     0.465740000000     0.895530000000    -0.510013   
O56      O      0.182850000000     0.457190000000     0.051980000000    -0.320576   
O57      O      0.060550000000     0.473580000000     0.776610000000    -0.333609   
O58      O      0.904140000000     0.472940000000     0.756410000000    -0.512063   
O59      O      0.042610000000     0.530100000000     0.905600000000    -0.61423    
O60      O      0.039480000000     0.405780000000     0.905510000000    -0.466771   
O61      O      0.041240000000     0.533970000000     0.047760000000    -0.476158   
O62      O      0.897630000000     0.407160000000     0.902170000000    -0.627573   
O63      O      0.036030000000     0.400470000000     0.046820000000    -0.619763   
O64      O      0.901610000000     0.540430000000     0.902920000000    -0.471514   
O65      O      0.568100000000     0.146310000000     0.972130000000    -0.355836   
O66      O      0.644270000000     0.071740000000     0.974050000000    -0.345196   
O67      O      0.364280000000     0.961280000000     0.146000000000    -0.362098   
O68      O      0.290430000000     0.965900000000     0.070430000000    -0.351222   
O69      O      0.574010000000     0.970450000000     0.148060000000    -0.355148   
O70      O      0.647180000000     0.974590000000     0.069960000000    -0.345038   
O71      O      0.358980000000     0.139530000000     0.968200000000    -0.359705   
O72      O      0.287950000000     0.061400000000     0.973980000000    -0.351958   
O73      O      0.457560000000     0.170510000000     0.057040000000    -0.330093   
O74      O      0.464540000000     0.186770000000     0.899380000000    -0.513196   
O75      O      0.463090000000     0.057740000000     0.169860000000    -0.514155   
O76      O      0.472210000000     0.901680000000     0.195300000000    -0.323588   
O77      O      0.529260000000     0.042470000000     0.043330000000    -0.470072   
O78      O      0.404520000000     0.038540000000     0.043320000000    -0.607635   
O79      O      0.364870000000     0.974150000000     0.801760000000    -0.35288    
O80      O      0.290580000000     0.966900000000     0.877810000000    -0.342621   
O81      O      0.578720000000     0.800530000000     0.974680000000    -0.367417   
O82      O      0.649900000000     0.878680000000     0.971280000000    -0.351172   
O83      O      0.368890000000     0.794360000000     0.981280000000    -0.349829   
O84      O      0.293180000000     0.869760000000     0.975490000000    -0.345616   
O85      O      0.573360000000     0.968690000000     0.802190000000    -0.359552   
O86      O      0.647260000000     0.970160000000     0.877010000000    -0.351328   
O87      O      0.469000000000     0.882360000000     0.779300000000    -0.510031   
O88      O      0.471160000000     0.040410000000     0.754900000000    -0.309772   
O89      O      0.473000000000     0.769410000000     0.891860000000    -0.336406   
O90      O      0.477170000000     0.753310000000     0.048960000000    -0.513692   
O91      O      0.409300000000     0.898210000000     0.905530000000    -0.615742   
O92      O      0.533790000000     0.901490000000     0.905370000000    -0.467704   
O93      O      0.399920000000     0.040310000000     0.902200000000    -0.473914   
O94      O      0.537470000000     0.900470000000     0.045890000000    -0.623054   
O95      O      0.533430000000     0.042590000000     0.901370000000    -0.624821   
O96      O      0.404000000000     0.897630000000     0.047680000000    -0.472586   
Zr1      Zr     0.841010000000     0.968500000000     0.473960000000     1.29536    
Zr2      Zr     0.970020000000     0.099010000000     0.473180000000     1.29744    
Zr3      Zr     0.968540000000     0.841640000000     0.476430000000     1.29683    
Zr4      Zr     0.097480000000     0.972440000000     0.475210000000     1.3038     
Zr5      Zr     0.970630000000     0.969350000000     0.356660000000     1.26738    
Zr6      Zr     0.968470000000     0.971620000000     0.592490000000     1.26741    
Zr7      Zr     0.967900000000     0.469750000000     0.103420000000     1.29957    
Zr8      Zr     0.840810000000     0.474570000000     0.971190000000     1.29616    
Zr9      Zr     0.097420000000     0.465280000000     0.978860000000     1.30085    
Zr10     Zr     0.970220000000     0.471550000000     0.846350000000     1.30337    
Zr11     Zr     0.965510000000     0.352200000000     0.974210000000     1.26691    
Zr12     Zr     0.973030000000     0.587900000000     0.975100000000     1.26709    
Zr13     Zr     0.465050000000     0.098650000000     0.970200000000     1.30211    
Zr14     Zr     0.469160000000     0.968490000000     0.102820000000     1.29601    
Zr15     Zr     0.469080000000     0.971860000000     0.846120000000     1.30968    
Zr16     Zr     0.472610000000     0.841620000000     0.978590000000     1.29759    
Zr17     Zr     0.587100000000     0.973280000000     0.973750000000     1.26237    
Zr18     Zr     0.351030000000     0.967210000000     0.974500000000     1.26172    


