data_structure

_audit_creation_method RASPA-1.0
_audit_creation_date 2023-6-5
_audit_author_name 'Poobodin Mano'

_cell_length_a    27.5481
_cell_length_b    27.4822
_cell_length_c    27.3093
_cell_angle_alpha 89.2565
_cell_angle_beta  89.2563
_cell_angle_gamma 89.2563
_cell_volume      20670.2

_symmetry_cell_setting          triclinic
_symmetry_space_group_name_Hall 'P 1'
_symmetry_space_group_name_H-M  'P 1'
_symmetry_Int_Tables_number     1

_symmetry_equiv_pos_as_xyz 'x,y,z'

loop_
_atom_site_label
_atom_site_type_symbol
_atom_site_fract_x
_atom_site_fract_y
_atom_site_fract_z
_atom_site_charge
C1       C      0.854680000000     0.981920000000     0.364330000000     0.379931   
C2       C      0.988830000000     0.101170000000     0.610130000000     0.385176   
C3       C      0.978160000000     0.096760000000     0.356330000000     0.382835   
C4       C      0.868110000000     0.963580000000     0.620470000000     0.389816   
C5       C      0.957910000000     0.866700000000     0.618920000000     0.388567   
C6       C      0.094200000000     0.971870000000     0.354290000000     0.384059   
C7       C      0.103600000000     0.976870000000     0.608290000000     0.384916   
C8       C      0.975420000000     0.855700000000     0.363330000000     0.380464   
C9       C      0.987220000000     0.351610000000     0.099300000000     0.385669   
C10      C      0.858300000000     0.604760000000     0.996370000000     0.390634   
C11      C      0.865760000000     0.351680000000     0.981370000000     0.377577   
C12      C      0.981560000000     0.605450000000     0.105470000000     0.382213   
C13      C      0.096760000000     0.612960000000     0.980620000000     0.380539   
C14      C      0.982730000000     0.360020000000     0.858230000000     0.382742   
C15      C      0.956900000000     0.613210000000     0.866260000000     0.384781   
C16      C      0.104990000000     0.359450000000     0.969720000000     0.385054   
C17      C      0.609600000000     0.098480000000     0.985040000000     0.380047   
C18      C      0.347730000000     0.982080000000     0.096350000000     0.386244   
C19      C      0.600690000000     0.980290000000     0.110440000000     0.377823   
C20      C      0.357330000000     0.102750000000     0.967700000000     0.388545   
C21      C      0.362700000000     0.979640000000     0.855730000000     0.383556   
C22      C      0.606280000000     0.859060000000     0.992620000000     0.390751   
C23      C      0.353610000000     0.862910000000     0.983440000000     0.380523   
C24      C      0.615200000000     0.962080000000     0.869720000000     0.383786   
C25      C      0.779040000000     0.633020000000     0.024260000000     0.104855   
C26      C      0.833370000000     0.685480000000     0.980880000000     0.0726416  
C27      C      0.743730000000     0.669980000000     0.024300000000    -0.0987549  
C28      C      0.726180000000     0.801830000000     0.004180000000    -0.0838393  
C29      C      0.798620000000     0.722470000000     0.980140000000    -0.0908121  
C30      C      0.714830000000     0.752720000000     0.999010000000     0.0303172  
C31      C      0.753010000000     0.714640000000     0.001280000000     0.0433057  
C32      C      0.689530000000     0.837030000000     0.001490000000     0.0699714  
C33      C      0.630790000000     0.776020000000     0.989490000000     0.0683943  
C34      C      0.666570000000     0.740050000000     0.991240000000    -0.0852149  
C35      C      0.844740000000     0.265180000000     0.973310000000     0.0957632  
C36      C      0.783870000000     0.325900000000     0.984440000000     0.0643305  
C37      C      0.808980000000     0.228970000000     0.977170000000    -0.0932876  
C38      C      0.729500000000     0.154320000000     0.970080000000    -0.0822134  
C39      C      0.747730000000     0.290800000000     0.984970000000    -0.0858065  
C40      C      0.720420000000     0.202650000000     0.984800000000     0.0297115  
C41      C      0.759480000000     0.241060000000     0.982740000000     0.0369788  
C42      C      0.692660000000     0.119630000000     0.972130000000     0.0654416  
C43      C      0.636410000000     0.178910000000     0.000260000000     0.0667493  
C44      C      0.672870000000     0.213810000000     0.001150000000    -0.0819904  
C45      C      0.119320000000     0.697380000000     0.997400000000     0.0941759  
C46      C      0.176680000000     0.640420000000     0.965280000000     0.0669671  
C47      C      0.155520000000     0.733270000000     0.997040000000    -0.0937586  
C48      C      0.290000000000     0.746270000000     0.992970000000    -0.0843174  
C49      C      0.212810000000     0.675520000000     0.964490000000    -0.0865498  
C50      C      0.242090000000     0.759880000000     0.981920000000     0.0316303  
C51      C      0.202860000000     0.722620000000     0.980790000000     0.0375443  
C52      C      0.326590000000     0.781050000000     0.993240000000     0.0671204  
C53      C      0.269870000000     0.843280000000     0.972960000000     0.0668938  
C54      C      0.232390000000     0.809260000000     0.971980000000    -0.0828871  
C55      C      0.275390000000     0.128770000000     0.945850000000     0.0997299  
C56      C      0.331410000000     0.183780000000     0.979950000000     0.0679162  
C57      C      0.239810000000     0.165660000000     0.945390000000    -0.0960356  
C58      C      0.163190000000     0.239050000000     0.973790000000    -0.0843314  
C59      C      0.296360000000     0.220630000000     0.980440000000    -0.0881488  
C60      C      0.211780000000     0.250540000000     0.964070000000     0.0319472  
C61      C      0.249830000000     0.211810000000     0.963320000000     0.0392711  
C62      C      0.127880000000     0.275750000000     0.974580000000     0.0683298  
C63      C      0.187530000000     0.335260000000     0.957450000000     0.0672235  
C64      C      0.223630000000     0.299330000000     0.955420000000    -0.0844184  
C65      C      0.808380000000     0.911800000000     0.658860000000     0.098316   
C66      C      0.841440000000     0.978710000000     0.700970000000     0.0712165  
C67      C      0.774020000000     0.905300000000     0.696810000000    -0.0953099  
C68      C      0.739600000000     0.944620000000     0.822330000000    -0.0844591  
C69      C      0.808210000000     0.972740000000     0.739280000000    -0.0874724  
C70      C      0.731490000000     0.937440000000     0.772430000000     0.0317727  
C71      C      0.772450000000     0.937330000000     0.736450000000     0.0386547  
C72      C      0.700360000000     0.951870000000     0.854490000000     0.0674608  
C73      C      0.645110000000     0.943920000000     0.789380000000     0.067671   
C74      C      0.683520000000     0.936110000000     0.756330000000    -0.0843607  
C75      C      0.132010000000     0.956570000000     0.690520000000     0.0992123  
C76      C      0.183820000000     0.994510000000     0.631490000000     0.0689388  
C77      C      0.169690000000     0.956900000000     0.724580000000    -0.0956277  
C78      C      0.242610000000     0.982720000000     0.799590000000    -0.0837659  
C79      C      0.221310000000     0.996200000000     0.665280000000    -0.0883062  
C80      C      0.254070000000     0.978750000000     0.749650000000     0.0312798  
C81      C      0.214650000000     0.977380000000     0.712630000000     0.0393622  
C82      C      0.279230000000     0.981900000000     0.834220000000     0.0684924  
C83      C      0.339310000000     0.976120000000     0.771720000000     0.0663858  
C84      C      0.303320000000     0.975370000000     0.735990000000    -0.0829838  
C85      C      0.263590000000     0.963150000000     0.118240000000     0.097945   
C86      C      0.317060000000     0.998040000000     0.175490000000     0.0691785  
C87      C      0.226760000000     0.961930000000     0.154360000000    -0.0946722  
C88      C      0.148100000000     0.982020000000     0.230970000000    -0.0841035  
C89      C      0.280870000000     0.997720000000     0.211430000000    -0.0887025  
C90      C      0.197580000000     0.975270000000     0.240920000000     0.0316917  
C91      C      0.235300000000     0.978800000000     0.201530000000     0.0390509  
C92      C      0.113720000000     0.979430000000     0.269020000000     0.0670661  
C93      C      0.175970000000     0.963600000000     0.326390000000     0.067155   
C94      C      0.211020000000     0.965060000000     0.289280000000    -0.0851817  
C95      C      0.627220000000     0.960240000000     0.193490000000     0.0954715  
C96      C      0.680390000000     0.998130000000     0.135730000000     0.0641312  
C97      C      0.663540000000     0.962080000000     0.229110000000    -0.0936778  
C98      C      0.796550000000     0.978100000000     0.243870000000    -0.083625   
C99      C      0.716800000000     0.000530000000     0.170790000000    -0.0833297  
C100     C      0.747320000000     0.984110000000     0.256400000000     0.0315604  
C101     C      0.708700000000     0.982640000000     0.218340000000     0.0356297  
C102     C      0.831920000000     0.978120000000     0.280220000000     0.0662781  
C103     C      0.771430000000     0.989640000000     0.341480000000     0.0653206  
C104     C      0.735240000000     0.990500000000     0.306010000000    -0.0844234  
C105     C      0.011070000000     0.128060000000     0.691540000000     0.0971417  
C106     C      0.972130000000     0.181630000000     0.634790000000     0.0690365  
C107     C      0.010500000000     0.165240000000     0.726440000000    -0.0930004  
C108     C      0.983130000000     0.238960000000     0.803090000000    -0.08391    
C109     C      0.970450000000     0.218620000000     0.669180000000    -0.0874164  
C110     C      0.987970000000     0.250230000000     0.753080000000     0.0317226  
C111     C      0.989600000000     0.210890000000     0.715800000000     0.037358   
C112     C      0.982010000000     0.275990000000     0.837570000000     0.0676148  
C113     C      0.988590000000     0.335730000000     0.774650000000     0.0660698  
C114     C      0.990950000000     0.299490000000     0.739210000000    -0.0841963  
C115     C      0.904190000000     0.808750000000     0.657570000000     0.0981573  
C116     C      0.973260000000     0.838190000000     0.698620000000     0.0705235  
C117     C      0.896970000000     0.774090000000     0.695250000000    -0.0948763  
C118     C      0.926900000000     0.681550000000     0.753790000000    -0.084398   
C119     C      0.966620000000     0.804830000000     0.736630000000    -0.0878241  
C120     C      0.928950000000     0.729590000000     0.769950000000     0.0320912  
C121     C      0.929670000000     0.770710000000     0.734180000000     0.0386052  
C122     C      0.935600000000     0.642960000000     0.786570000000     0.0679911  
C123     C      0.945520000000     0.698330000000     0.851390000000     0.0678367  
C124     C      0.937220000000     0.737640000000     0.819610000000    -0.0848802  
C125     C      0.957560000000     0.686860000000     0.132780000000     0.0960739  
C126     C      0.999380000000     0.631450000000     0.185530000000     0.0667977  
C127     C      0.957890000000     0.722130000000     0.169590000000    -0.0934187  
C128     C      0.983940000000     0.799300000000     0.242180000000    -0.0835217  
C129     C      0.000120000000     0.666130000000     0.222450000000    -0.0844081  
C130     C      0.979170000000     0.749760000000     0.253970000000     0.0314072  
C131     C      0.979420000000     0.712260000000     0.214800000000     0.0369239  
C132     C      0.982250000000     0.834130000000     0.279020000000     0.0668621  
C133     C      0.972370000000     0.772380000000     0.339490000000     0.0645152  
C134     C      0.973380000000     0.736630000000     0.303460000000    -0.0828748  
C135     C      0.963020000000     0.270100000000     0.124930000000     0.0966224  
C136     C      0.009320000000     0.320190000000     0.176720000000     0.0686206  
C137     C      0.963700000000     0.233020000000     0.160730000000    -0.0948412  
C138     C      0.986830000000     0.152000000000     0.233430000000    -0.0842258  
C139     C      0.010570000000     0.283730000000     0.212580000000    -0.0872278  
C140     C      0.985180000000     0.201740000000     0.244380000000     0.0317346  
C141     C      0.987270000000     0.239640000000     0.205070000000     0.0376916  
C142     C      0.983610000000     0.117220000000     0.271120000000     0.0671294  
C143     C      0.977660000000     0.179630000000     0.330080000000     0.0665488  
C144     C      0.980170000000     0.215180000000     0.293420000000    -0.0844736  
H1       H      0.907630000000     0.056570000000     0.558690000000     0.21031    
H2       H      0.053290000000     0.049980000000     0.408730000000     0.204814   
H3       H      0.053280000000     0.901750000000     0.556330000000     0.209595   
H4       H      0.898960000000     0.904170000000     0.419320000000     0.202563   
H5       H      0.068470000000     0.133640000000     0.472800000000     0.126592   
H6       H      0.146500000000     0.060990000000     0.472080000000     0.186652   
H7       H      0.125580000000     0.887230000000     0.454110000000     0.147145   
H8       H      0.047810000000     0.807470000000     0.532540000000     0.198335   
H9       H      0.890170000000     0.818630000000     0.487780000000     0.129887   
H10      H      0.804080000000     0.900690000000     0.487180000000     0.189369   
H11      H      0.824440000000     0.067220000000     0.470390000000     0.146225   
H12      H      0.903610000000     0.149440000000     0.516350000000     0.199879   
H13      H      0.062160000000     0.813960000000     0.473080000000     0.202544   
H14      H      0.772540000000     0.952470000000     0.495600000000     0.203226   
H15      H      0.895340000000     0.141060000000     0.456480000000     0.20346    
H16      H      0.181970000000     0.011130000000     0.475250000000     0.203845   
H17      H      0.909470000000     0.545850000000     0.064270000000     0.208494   
H18      H      0.904680000000     0.410750000000     0.908500000000     0.205612   
H19      H      0.048120000000     0.557420000000     0.902550000000     0.20935    
H20      H      0.064070000000     0.409170000000     0.050070000000     0.202885   
H21      H      0.819200000000     0.478860000000     0.905150000000     0.127155   
H22      H      0.883800000000     0.477470000000     0.819420000000     0.186479   
H23      H      0.058160000000     0.466490000000     0.822620000000     0.147881   
H24      H      0.142490000000     0.522790000000     0.890690000000     0.199565   
H25      H      0.144840000000     0.477670000000     0.056990000000     0.126126   
H26      H      0.083340000000     0.468920000000     0.138690000000     0.18509    
H27      H      0.907180000000     0.449310000000     0.138990000000     0.149144   
H28      H      0.836550000000     0.492190000000     0.088080000000     0.197017   
H29      H      0.138510000000     0.462640000000     0.883350000000     0.203113   
H30      H      0.040230000000     0.482830000000     0.180150000000     0.20451    
H31      H      0.804420000000     0.449010000000     0.061210000000     0.206299   
H32      H      0.929860000000     0.486660000000     0.779910000000     0.203224   
H33      H      0.408890000000     0.059290000000     0.050380000000     0.208875   
H34      H      0.548410000000     0.906090000000     0.065650000000     0.204871   
H35      H      0.416840000000     0.904540000000     0.907590000000     0.208503   
H36      H      0.560320000000     0.051750000000     0.906120000000     0.203478   
H37      H      0.475090000000     0.899220000000     0.146510000000     0.127048   
H38      H      0.481130000000     0.819220000000     0.081660000000     0.186297   
H39      H      0.510800000000     0.827780000000     0.904550000000     0.147727   
H40      H      0.473230000000     0.882440000000     0.832510000000     0.195057   
H41      H      0.483270000000     0.065540000000     0.823080000000     0.131247   
H42      H      0.499790000000     0.141740000000     0.884740000000     0.186803   
H43      H      0.501980000000     0.132650000000     0.063890000000     0.147773   
H44      H      0.441150000000     0.067850000000     0.144200000000     0.198371   
H45      H      0.499780000000     0.918410000000     0.790460000000     0.20522    
H46      H      0.483060000000     0.180800000000     0.928560000000     0.205252   
H47      H      0.501850000000     0.069380000000     0.144100000000     0.203523   
H48      H      0.475920000000     0.780240000000     0.035460000000     0.204532   
H49      H      0.699840000000     0.874650000000     0.005890000000     0.0290365  
H50      H      0.867700000000     0.692890000000     0.962490000000     0.0293303  
H51      H      0.656410000000     0.702550000000     0.985960000000     0.0512423  
H52      H      0.807140000000     0.756490000000     0.961700000000     0.0526743  
H53      H      0.763010000000     0.813080000000     0.010880000000     0.0506935  
H54      H      0.709210000000     0.664400000000     0.043050000000     0.0570742  
H55      H      0.593900000000     0.764460000000     0.983340000000     0.0246506  
H56      H      0.701660000000     0.083110000000     0.960140000000     0.026571   
H57      H      0.771390000000     0.363290000000     0.987910000000     0.0270794  
H58      H      0.662940000000     0.249160000000     0.015130000000     0.0487968  
H59      H      0.710620000000     0.303770000000     0.986870000000     0.0494754  
H60      H      0.764400000000     0.142560000000     0.955930000000     0.0484851  
H61      H      0.820410000000     0.191260000000     0.975070000000     0.0536519  
H62      H      0.600400000000     0.189870000000     0.012700000000     0.0246245  
H63      H      0.362900000000     0.768370000000     0.002080000000     0.0269064  
H64      H      0.187010000000     0.604860000000     0.951500000000     0.0243456  
H65      H      0.196190000000     0.821680000000     0.962610000000     0.0502449  
H66      H      0.248500000000     0.665570000000     0.950530000000     0.0510156  
H67      H      0.299400000000     0.708870000000     0.002000000000     0.0514721  
H68      H      0.147240000000     0.769230000000     0.011100000000     0.0558988  
H69      H      0.260560000000     0.880870000000     0.964500000000     0.029819   
H70      H      0.090840000000     0.265060000000     0.982610000000     0.0299576  
H71      H      0.366540000000     0.192540000000     0.994780000000     0.0267848  
H72      H      0.260500000000     0.309890000000     0.946720000000     0.0503832  
H73      H      0.305660000000     0.255590000000     0.995290000000     0.0512923  
H74      H      0.152350000000     0.202000000000     0.981640000000     0.0513863  
H75      H      0.204480000000     0.158800000000     0.929920000000     0.0560763  
H76      H      0.198440000000     0.372530000000     0.950630000000     0.0269125  
H77      H      0.708550000000     0.957940000000     0.892630000000     0.0286286  
H78      H      0.866650000000     0.008600000000     0.703390000000     0.0271801  
H79      H      0.675640000000     0.931230000000     0.717960000000     0.0510848  
H80      H      0.808690000000     0.997920000000     0.769460000000     0.0519821  
H81      H      0.776180000000     0.945600000000     0.836340000000     0.0504963  
H82      H      0.747940000000     0.876210000000     0.694860000000     0.0551878  
H83      H      0.608660000000     0.943580000000     0.774900000000     0.0247831  
H84      H      0.267970000000     0.983730000000     0.872300000000     0.0309016  
H85      H      0.191040000000     0.010370000000     0.595580000000     0.0259902  
H86      H      0.314260000000     0.971380000000     0.698030000000     0.0495777  
H87      H      0.255080000000     0.013090000000     0.654260000000     0.0517188  
H88      H      0.205430000000     0.986700000000     0.812350000000     0.0509275  
H89      H      0.164260000000     0.939930000000     0.760280000000     0.0553235  
H90      H      0.376820000000     0.973480000000     0.759430000000     0.027007   
H91      H      0.075960000000     0.985640000000     0.259810000000     0.0277202  
H92      H      0.351560000000     0.013440000000     0.185500000000     0.0233954  
H93      H      0.248540000000     0.957970000000     0.298700000000     0.050547   
H94      H      0.288850000000     0.012520000000     0.246950000000     0.0517711  
H95      H      0.135910000000     0.990360000000     0.194240000000     0.0502073  
H96      H      0.191940000000     0.946050000000     0.146290000000     0.0554596  
H97      H      0.188470000000     0.955940000000     0.363220000000     0.0236216  
H98      H      0.869380000000     0.972900000000     0.268560000000     0.0285867  
H99      H      0.688600000000     0.013530000000     0.099840000000     0.0307673  
H100     H      0.697940000000     0.996430000000     0.317670000000     0.049561   
H101     H      0.750920000000     0.017220000000     0.160600000000     0.0507366  
H102     H      0.807910000000     0.972320000000     0.206280000000     0.0498881  
H103     H      0.657140000000     0.945870000000     0.265030000000     0.0546417  
H104     H      0.760020000000     0.994520000000     0.379260000000     0.0225591  
H105     H      0.978360000000     0.265160000000     0.875730000000     0.0306393  
H106     H      0.955760000000     0.189660000000     0.599620000000     0.0210963  
H107     H      0.995710000000     0.310290000000     0.701210000000     0.0497302  
H108     H      0.953140000000     0.252860000000     0.659230000000     0.0503184  
H109     H      0.979530000000     0.201720000000     0.815870000000     0.0506496  
H110     H      0.027570000000     0.158980000000     0.761590000000     0.055461   
H111     H      0.991090000000     0.373210000000     0.762080000000     0.0230932  
H112     H      0.934940000000     0.606410000000     0.772140000000     0.0255674  
H113     H      0.004240000000     0.861840000000     0.700710000000     0.0272703  
H114     H      0.938700000000     0.774280000000     0.833630000000     0.0509777  
H115     H      0.992430000000     0.803860000000     0.766240000000     0.0525297  
H116     H      0.921100000000     0.673800000000     0.715530000000     0.0516741  
H117     H      0.866800000000     0.749260000000     0.693670000000     0.0557397  
H118     H      0.952610000000     0.706590000000     0.889330000000     0.0294007  
H119     H      0.986180000000     0.871880000000     0.267860000000     0.029206   
H120     H      0.016880000000     0.596700000000     0.193440000000     0.0258257  
H121     H      0.968750000000     0.698970000000     0.314490000000     0.0504142  
H122     H      0.017670000000     0.656840000000     0.256620000000     0.0506876  
H123     H      0.989440000000     0.811340000000     0.204630000000     0.0506314  
H124     H      0.939780000000     0.756980000000     0.163610000000     0.0550046  
H125     H      0.967580000000     0.760300000000     0.377170000000     0.0298513  
H126     H      0.985410000000     0.079200000000     0.261050000000     0.0278582  
H127     H      0.028460000000     0.353460000000     0.184350000000     0.0219483  
H128     H      0.977420000000     0.253060000000     0.303670000000     0.0506819  
H129     H      0.029980000000     0.290230000000     0.246060000000     0.0507871  
H130     H      0.991160000000     0.139860000000     0.196050000000     0.0503282  
H131     H      0.943860000000     0.199730000000     0.155020000000     0.0554689  
H132     H      0.973750000000     0.192140000000     0.367430000000     0.0282791  
N1       N      0.823490000000     0.640540000000     0.001080000000    -0.192893   
N2       N      0.642120000000     0.824200000000     0.994510000000    -0.191448   
N3       N      0.832450000000     0.314080000000     0.979610000000    -0.188001   
N4       N      0.646150000000     0.132080000000     0.986010000000    -0.188361   
N5       N      0.130000000000     0.650480000000     0.981270000000    -0.18799    
N6       N      0.316810000000     0.829340000000     0.983290000000    -0.185976   
N7       N      0.321250000000     0.137750000000     0.964040000000    -0.19143    
N8       N      0.139980000000     0.323620000000     0.967030000000    -0.189532   
N9       N      0.839130000000     0.951110000000     0.659570000000    -0.192062   
N10      N      0.653380000000     0.952670000000     0.838030000000    -0.187475   
N11      N      0.139060000000     0.975760000000     0.643640000000    -0.190068   
N12      N      0.327370000000     0.979220000000     0.820590000000    -0.187599   
N13      N      0.309210000000     0.981010000000     0.129150000000    -0.190382   
N14      N      0.127660000000     0.971250000000     0.316580000000    -0.189311   
N15      N      0.635420000000     0.979240000000     0.146660000000    -0.188882   
N16      N      0.819530000000     0.983310000000     0.328850000000    -0.187693   
N17      N      0.991100000000     0.136260000000     0.645660000000    -0.190922   
N18      N      0.984410000000     0.324140000000     0.823580000000    -0.188384   
N19      N      0.944790000000     0.837720000000     0.657820000000    -0.192468   
N20      N      0.946070000000     0.651270000000     0.834830000000    -0.187383   
N21      N      0.979220000000     0.641360000000     0.140540000000    -0.188347   
N22      N      0.976540000000     0.820900000000     0.327460000000    -0.187082   
N23      N      0.986320000000     0.313800000000     0.132930000000    -0.191615   
N24      N      0.979500000000     0.130920000000     0.319200000000    -0.188781   
O1       O      0.840900000000     0.982600000000     0.410020000000    -0.363159   
O2       O      0.899770000000     0.979540000000     0.350430000000    -0.354144   
O3       O      0.987360000000     0.115590000000     0.564760000000    -0.360509   
O4       O      0.986630000000     0.055910000000     0.623520000000    -0.350538   
O5       O      0.980000000000     0.112200000000     0.400850000000    -0.364983   
O6       O      0.976200000000     0.051100000000     0.345210000000    -0.351366   
O7       O      0.851220000000     0.959490000000     0.576430000000    -0.340968   
O8       O      0.910980000000     0.979120000000     0.629820000000    -0.35304    
O9       O      0.827120000000     0.052350000000     0.503470000000    -0.347276   
O10      O      0.803250000000     0.935550000000     0.491380000000    -0.509525   
O11      O      0.913380000000     0.134310000000     0.485960000000    -0.511914   
O12      O      0.035820000000     0.148290000000     0.478030000000    -0.324215   
O13      O      0.923080000000     0.034300000000     0.438740000000    -0.468187   
O14      O      0.926240000000     0.036110000000     0.536680000000    -0.609693   
O15      O      0.952280000000     0.850670000000     0.574750000000    -0.345369   
O16      O      0.976040000000     0.908520000000     0.628600000000    -0.353181   
O17      O      0.110410000000     0.971590000000     0.398630000000    -0.36808    
O18      O      0.048480000000     0.973980000000     0.343860000000    -0.352127   
O19      O      0.117370000000     0.979170000000     0.562720000000    -0.354683   
O20      O      0.058490000000     0.976210000000     0.621950000000    -0.350322   
O21      O      0.973630000000     0.841320000000     0.408790000000    -0.358799   
O22      O      0.976420000000     0.901080000000     0.349970000000    -0.352608   
O23      O      0.041600000000     0.822050000000     0.500800000000    -0.517052   
O24      O      0.923830000000     0.805640000000     0.489350000000    -0.323264   
O25      O      0.131720000000     0.904400000000     0.485030000000    -0.339226   
O26      O      0.150010000000     0.026060000000     0.475160000000    -0.511965   
O27      O      0.033670000000     0.921990000000     0.534970000000    -0.60946    
O28      O      0.030230000000     0.920440000000     0.437520000000    -0.468847   
O29      O      0.923990000000     0.926360000000     0.542840000000    -0.469261   
O30      O      0.033470000000     0.031100000000     0.431180000000    -0.622421   
O31      O      0.919840000000     0.923750000000     0.439030000000    -0.620503   
O32      O      0.037880000000     0.033840000000     0.534640000000    -0.477322   
O33      O      0.991030000000     0.395510000000     0.115680000000    -0.363358   
O34      O      0.984900000000     0.341610000000     0.053280000000    -0.350483   
O35      O      0.844490000000     0.559980000000     0.994750000000    -0.35602    
O36      O      0.903000000000     0.618010000000     0.992310000000    -0.353927   
O37      O      0.849120000000     0.396070000000     0.983560000000    -0.3615     
O38      O      0.911780000000     0.341590000000     0.981150000000    -0.344771   
O39      O      0.987660000000     0.560540000000     0.119920000000    -0.352459   
O40      O      0.978040000000     0.618070000000     0.059910000000    -0.3475     
O41      O      0.927350000000     0.477750000000     0.146560000000    -0.339924   
O42      O      0.049840000000     0.476530000000     0.146640000000    -0.514712   
O43      O      0.830820000000     0.471820000000     0.060220000000    -0.51161    
O44      O      0.807490000000     0.481260000000     0.939480000000    -0.325964   
O45      O      0.932130000000     0.430480000000     0.040420000000    -0.467214   
O46      O      0.928890000000     0.526410000000     0.042040000000    -0.611484   
O47      O      0.113520000000     0.568600000000     0.978760000000    -0.356714   
O48      O      0.050760000000     0.623280000000     0.981150000000    -0.348287   
O49      O      0.979440000000     0.405110000000     0.843600000000    -0.362956   
O50      O      0.984360000000     0.346870000000     0.903840000000    -0.35322    
O51      O      0.957000000000     0.569240000000     0.849340000000    -0.351605   
O52      O      0.966140000000     0.623180000000     0.911380000000    -0.35284    
O53      O      0.118810000000     0.404380000000     0.969090000000    -0.362757   
O54      O      0.060130000000     0.346460000000     0.973680000000    -0.356002   
O55      O      0.130820000000     0.491510000000     0.901890000000    -0.513047   
O56      O      0.156020000000     0.483530000000     0.022850000000    -0.325028   
O57      O      0.039280000000     0.497370000000     0.821300000000    -0.342504   
O58      O      0.917940000000     0.482820000000     0.813150000000    -0.512233   
O59      O      0.030770000000     0.534650000000     0.923330000000    -0.610535   
O60      O      0.034220000000     0.437610000000     0.921190000000    -0.467463   
O61      O      0.039270000000     0.534290000000     0.035150000000    -0.474671   
O62      O      0.924480000000     0.431460000000     0.928160000000    -0.625562   
O63      O      0.042470000000     0.430540000000     0.032000000000    -0.621686   
O64      O      0.920140000000     0.534590000000     0.931470000000    -0.473414   
O65      O      0.565090000000     0.114520000000     0.984250000000    -0.361678   
O66      O      0.621320000000     0.052670000000     0.984280000000    -0.354073   
O67      O      0.391290000000     0.982080000000     0.113970000000    -0.35823    
O68      O      0.338940000000     0.983550000000     0.050000000000    -0.350124   
O69      O      0.555210000000     0.979960000000     0.123320000000    -0.357412   
O70      O      0.615250000000     0.982190000000     0.065080000000    -0.3496     
O71      O      0.401930000000     0.117190000000     0.968840000000    -0.357126   
O72      O      0.345090000000     0.057620000000     0.971480000000    -0.351141   
O73      O      0.475450000000     0.140860000000     0.040980000000    -0.338459   
O74      O      0.489930000000     0.147910000000     0.918190000000    -0.514292   
O75      O      0.472160000000     0.054220000000     0.134160000000    -0.514636   
O76      O      0.469970000000     0.932950000000     0.158000000000    -0.322588   
O77      O      0.527490000000     0.036850000000     0.037870000000    -0.469796   
O78      O      0.431000000000     0.038350000000     0.032420000000    -0.609739   
O79      O      0.407980000000     0.979340000000     0.841840000000    -0.355686   
O80      O      0.348790000000     0.980360000000     0.901120000000    -0.353863   
O81      O      0.561730000000     0.844800000000     0.990900000000    -0.368436   
O82      O      0.618820000000     0.904190000000     0.992920000000    -0.356566   
O83      O      0.397790000000     0.847050000000     0.989200000000    -0.353577   
O84      O      0.342550000000     0.908600000000     0.977550000000    -0.347592   
O85      O      0.571700000000     0.964370000000     0.852070000000    -0.354854   
O86      O      0.624510000000     0.968060000000     0.915590000000    -0.35102    
O87      O      0.486960000000     0.913440000000     0.823220000000    -0.50885    
O88      O      0.496840000000     0.034190000000     0.811350000000    -0.337974   
O89      O      0.480750000000     0.821160000000     0.923620000000    -0.343703   
O90      O      0.478730000000     0.813160000000     0.047000000000    -0.513325   
O91      O      0.436720000000     0.924840000000     0.927590000000    -0.614259   
O92      O      0.532500000000     0.923070000000     0.932810000000    -0.465749   
O93      O      0.433970000000     0.035730000000     0.921020000000    -0.475319   
O94      O      0.529010000000     0.926020000000     0.043810000000    -0.622571   
O95      O      0.537620000000     0.033430000000     0.926080000000    -0.622514   
O96      O      0.425700000000     0.927840000000     0.039240000000    -0.475526   
S1       S      0.767380000000     0.585470000000     0.056200000000    -0.0266453  
S2       S      0.897690000000     0.246900000000     0.957130000000    -0.0139297  
S3       S      0.068350000000     0.712430000000     0.021500000000    -0.00373241 
S4       S      0.261680000000     0.079190000000     0.920090000000    -0.0110257  
S5       S      0.809340000000     0.869040000000     0.610560000000    -0.0163294  
S6       S      0.083910000000     0.929060000000     0.707340000000    -0.0172441  
S7       S      0.251500000000     0.938370000000     0.067420000000    -0.00753711 
S8       S      0.579740000000     0.930630000000     0.208320000000    -0.0180087  
S9       S      0.040100000000     0.079330000000     0.705550000000    -0.00439177 
S10      S      0.860350000000     0.812580000000     0.610490000000    -0.0103712  
S11      S      0.926800000000     0.700370000000     0.085270000000    -0.00838052 
S12      S      0.929110000000     0.261600000000     0.079140000000    -0.00565252 
Zr1      Zr     0.877950000000     0.980170000000     0.491730000000     1.28819    
Zr2      Zr     0.981950000000     0.078920000000     0.483870000000     1.29665    
Zr3      Zr     0.974100000000     0.877760000000     0.490520000000     1.29027    
Zr4      Zr     0.078950000000     0.976180000000     0.482440000000     1.29425    
Zr5      Zr     0.975560000000     0.976820000000     0.394900000000     1.2668     
Zr6      Zr     0.982370000000     0.980630000000     0.578250000000     1.26909    
Zr7      Zr     0.990130000000     0.479110000000     0.082960000000     1.2913     
Zr8      Zr     0.881170000000     0.479010000000     0.987690000000     1.29747    
Zr9      Zr     0.081810000000     0.485530000000     0.975460000000     1.29177    
Zr10     Zr     0.973330000000     0.486340000000     0.880510000000     1.29077    
Zr11     Zr     0.984410000000     0.391440000000     0.979530000000     1.27141    
Zr12     Zr     0.978230000000     0.573340000000     0.984140000000     1.26809    
Zr13     Zr     0.483240000000     0.081280000000     0.975980000000     1.29166    
Zr14     Zr     0.475530000000     0.982760000000     0.083900000000     1.2939     
Zr15     Zr     0.488000000000     0.978870000000     0.881110000000     1.29162    
Zr16     Zr     0.480180000000     0.880230000000     0.989350000000     1.2962     
Zr17     Zr     0.572830000000     0.979140000000     0.987310000000     1.26701    
Zr18     Zr     0.391020000000     0.982240000000     0.977940000000     1.26849    


