data_structure

_audit_creation_method RASPA-1.0
_audit_creation_date 2023-6-5
_audit_author_name 'Poobodin Mano'

_cell_length_a    27.5681
_cell_length_b    27.5253
_cell_length_c    27.5081
_cell_angle_alpha 89.2565
_cell_angle_beta  89.2563
_cell_angle_gamma 89.2563
_cell_volume      20868.5

_symmetry_cell_setting          triclinic
_symmetry_space_group_name_Hall 'P 1'
_symmetry_space_group_name_H-M  'P 1'
_symmetry_Int_Tables_number     1

_symmetry_equiv_pos_as_xyz 'x,y,z'

loop_
_atom_site_label
_atom_site_type_symbol
_atom_site_fract_x
_atom_site_fract_y
_atom_site_fract_z
_atom_site_charge
C1       C      0.864030000000     0.983130000000     0.354920000000     0.376729   
C2       C      0.979080000000     0.101980000000     0.606610000000     0.379657   
C3       C      0.987510000000     0.097150000000     0.353830000000     0.385569   
C4       C      0.861200000000     0.977240000000     0.609460000000     0.388511   
C5       C      0.977810000000     0.861100000000     0.611470000000     0.386756   
C6       C      0.105040000000     0.976480000000     0.359990000000     0.390965   
C7       C      0.099500000000     0.982600000000     0.611810000000     0.38041    
C8       C      0.982190000000     0.857940000000     0.357270000000     0.379087   
C9       C      0.973170000000     0.349890000000     0.100390000000     0.38868    
C10      C      0.863380000000     0.608690000000     0.975120000000     0.38991    
C11      C      0.855880000000     0.355720000000     0.984100000000     0.377471   
C12      C      0.981850000000     0.602640000000     0.104940000000     0.380911   
C13      C      0.103170000000     0.601530000000     0.984960000000     0.376643   
C14      C      0.979970000000     0.354150000000     0.861120000000     0.380195   
C15      C      0.972470000000     0.607770000000     0.865280000000     0.391127   
C16      C      0.095680000000     0.348300000000     0.979820000000     0.386088   
C17      C      0.605110000000     0.099680000000     0.977290000000     0.378158   
C18      C      0.354270000000     0.981070000000     0.104720000000     0.388915   
C19      C      0.606520000000     0.983160000000     0.103980000000     0.376067   
C20      C      0.352310000000     0.096410000000     0.975320000000     0.389341   
C21      C      0.354290000000     0.976190000000     0.864370000000     0.380697   
C22      C      0.608830000000     0.860010000000     0.987940000000     0.387053   
C23      C      0.355280000000     0.857000000000     0.992960000000     0.378285   
C24      C      0.606480000000     0.972350000000     0.863260000000     0.385933   
C25      C      0.787380000000     0.641830000000     0.947000000000     0.087247   
C26      C      0.839370000000     0.688580000000     0.995900000000     0.0691017  
C27      C      0.751810000000     0.678240000000     0.949600000000    -0.0889072  
C28      C      0.730920000000     0.806470000000     0.978670000000    -0.0853431  
C29      C      0.804390000000     0.725440000000     0.999060000000    -0.0870541  
C30      C      0.720660000000     0.756910000000     0.981770000000     0.0342146  
C31      C      0.759590000000     0.719830000000     0.976830000000     0.0372986  
C32      C      0.693170000000     0.840550000000     0.981530000000     0.0692286  
C33      C      0.635730000000     0.777600000000     0.991330000000     0.0685309  
C34      C      0.672540000000     0.742680000000     0.988820000000    -0.086078   
C35      C      0.778920000000     0.602850000000     0.913390000000     0.0468101  
C36      C      0.772430000000     0.329600000000     0.996890000000     0.0822122  
C37      C      0.833640000000     0.273370000000     0.972310000000     0.0658546  
C38      C      0.737750000000     0.292700000000     0.995620000000    -0.086697   
C39      C      0.724300000000     0.157510000000     0.988390000000    -0.0827364  
C40      C      0.799450000000     0.236250000000     0.969940000000    -0.0830321  
C41      C      0.712930000000     0.206580000000     0.978740000000     0.0327187  
C42      C      0.750560000000     0.245510000000     0.981360000000     0.0352824  
C43      C      0.688170000000     0.122130000000     0.986820000000     0.0665977  
C44      C      0.629380000000     0.182220000000     0.966790000000     0.0659658  
C45      C      0.664690000000     0.218250000000     0.967080000000    -0.08355    
C46      C      0.755060000000     0.376350000000     0.013930000000     0.0439988  
C47      C      0.187290000000     0.627090000000     0.975620000000     0.082359   
C48      C      0.125450000000     0.684030000000     0.996620000000     0.0656294  
C49      C      0.222070000000     0.663890000000     0.977490000000    -0.0859352  
C50      C      0.294780000000     0.738940000000     0.005760000000    -0.0819501  
C51      C      0.159740000000     0.721100000000     0.999570000000    -0.0835248  
C52      C      0.246760000000     0.750450000000     0.992940000000     0.0320858  
C53      C      0.209010000000     0.711490000000     0.990170000000     0.0355193  
C54      C      0.330310000000     0.774840000000     0.005680000000     0.0688394  
C55      C      0.272150000000     0.834640000000     0.983250000000     0.066469   
C56      C      0.235850000000     0.799360000000     0.982000000000    -0.0818722  
C57      C      0.205290000000     0.579900000000     0.960480000000     0.0413163  
C58      C      0.117640000000     0.263080000000     0.968700000000     0.0837427  
C59      C      0.177040000000     0.321460000000     0.987830000000     0.0657505  
C60      C      0.153860000000     0.227010000000     0.966320000000    -0.0876251  
C61      C      0.231770000000     0.152350000000     0.988190000000    -0.0862199  
C62      C      0.213290000000     0.285990000000     0.986940000000    -0.0849972  
C63      C      0.240950000000     0.200330000000     0.973500000000     0.035439   
C64      C      0.202180000000     0.238210000000     0.975470000000     0.0358565  
C65      C      0.269100000000     0.117740000000     0.987330000000     0.0705667  
C66      C      0.324590000000     0.176920000000     0.958460000000     0.0715638  
C67      C      0.287900000000     0.212080000000     0.957670000000    -0.0860248  
C68      C      0.068760000000     0.247380000000     0.959230000000     0.0449532  
C69      C      0.836410000000     0.989960000000     0.693420000000     0.0851118  
C70      C      0.781690000000     0.958250000000     0.636090000000     0.0706406  
C71      C      0.800340000000     0.987630000000     0.729530000000    -0.0890509  
C72      C      0.726570000000     0.959990000000     0.805990000000    -0.0844656  
C73      C      0.745650000000     0.954530000000     0.671770000000    -0.0865371  
C74      C      0.715680000000     0.968670000000     0.756950000000     0.0334962  
C75      C      0.754510000000     0.969740000000     0.719060000000     0.0377872  
C76      C      0.689770000000     0.961690000000     0.841210000000     0.0693108  
C77      C      0.631360000000     0.978000000000     0.780410000000     0.0667986  
C78      C      0.667320000000     0.977760000000     0.744510000000    -0.0843386  
C79      C      0.882000000000     0.010630000000     0.707880000000     0.0462421  
C80      C      0.121220000000     0.973380000000     0.697440000000     0.0822994  
C81      C      0.180730000000     0.992860000000     0.637530000000     0.0671023  
C82      C      0.157240000000     0.971860000000     0.733220000000    -0.0862433  
C83      C      0.234140000000     0.989530000000     0.808510000000    -0.0825411  
C84      C      0.216800000000     0.993040000000     0.672760000000    -0.0851098  
C85      C      0.244630000000     0.979910000000     0.759370000000     0.0327275  
C86      C      0.205780000000     0.981710000000     0.721420000000     0.0358815  
C87      C      0.270870000000     0.987120000000     0.843260000000     0.0679687  
C88      C      0.328950000000     0.967670000000     0.782280000000     0.067143   
C89      C      0.292940000000     0.968340000000     0.746920000000    -0.0828176  
C90      C      0.072330000000     0.963520000000     0.714350000000     0.0447917  
C91      C      0.141650000000     0.940570000000     0.289960000000     0.0932985  
C92      C      0.172530000000     0.013280000000     0.323090000000     0.0739566  
C93      C      0.175040000000     0.943500000000     0.251440000000    -0.0885267  
C94      C      0.294000000000     0.988630000000     0.223510000000    -0.0859665  
C95      C      0.206720000000     0.016680000000     0.285670000000    -0.0868119  
C96      C      0.245520000000     0.983210000000     0.210940000000     0.0349241  
C97      C      0.207750000000     0.981860000000     0.249150000000     0.0378802  
C98      C      0.329780000000     0.987790000000     0.187500000000     0.0691428  
C99      C      0.270450000000     0.977640000000     0.126790000000     0.0704539  
C100     C      0.233720000000     0.977650000000     0.162100000000    -0.0856004  
C101     C      0.117510000000     0.894750000000     0.297860000000     0.0401245  
C102     C      0.841770000000     0.984630000000     0.268930000000     0.0812306  
C103     C      0.781410000000     0.988560000000     0.330830000000     0.0643387  
C104     C      0.805440000000     0.983480000000     0.233450000000    -0.0860717  
C105     C      0.725810000000     0.999410000000     0.159860000000    -0.0829185  
C106     C      0.744810000000     0.989710000000     0.296080000000    -0.0840595  
C107     C      0.716790000000     0.985470000000     0.208580000000     0.0320078  
C108     C      0.756070000000     0.986130000000     0.246380000000     0.034596   
C109     C      0.688990000000     0.997480000000     0.125240000000     0.0659798  
C110     C      0.633110000000     0.971020000000     0.185560000000     0.064215   
C111     C      0.669450000000     0.970640000000     0.220620000000    -0.0821123  
C112     C      0.891070000000     0.986840000000     0.250540000000     0.0442718  
C113     C      0.963990000000     0.184980000000     0.632730000000     0.0843917  
C114     C      0.991990000000     0.124790000000     0.688610000000     0.0698675  
C115     C      0.964650000000     0.219870000000     0.669420000000    -0.0858989  
C116     C      0.992260000000     0.294110000000     0.742950000000    -0.0844923  
C117     C      0.993570000000     0.159240000000     0.725620000000    -0.0818435  
C118     C      0.981650000000     0.245620000000     0.754950000000     0.0338881  
C119     C      0.980090000000     0.207700000000     0.716330000000     0.0361146  
C120     C      0.991280000000     0.329750000000     0.778710000000     0.0679378  
C121     C      0.971640000000     0.270850000000     0.838970000000     0.0682957  
C122     C      0.971520000000     0.234340000000     0.803900000000    -0.0817143  
C123     C      0.945220000000     0.201520000000     0.586350000000     0.0419194  
C124     C      0.941700000000     0.640910000000     0.790130000000     0.0886116  
C125     C      0.992120000000     0.687780000000     0.840510000000     0.070452   
C126     C      0.942270000000     0.677770000000     0.754810000000    -0.0894919  
C127     C      0.977430000000     0.743340000000     0.674470000000    -0.0843736  
C128     C      0.993260000000     0.725090000000     0.805780000000    -0.0869446  
C129     C      0.972150000000     0.757210000000     0.723000000000     0.0336811  
C130     C      0.969130000000     0.719720000000     0.761890000000     0.038657   
C131     C      0.979210000000     0.778520000000     0.637820000000     0.0691346  
C132     C      0.971520000000     0.841120000000     0.695970000000     0.0698633  
C133     C      0.969440000000     0.806740000000     0.733660000000    -0.0822659  
C134     C      0.908160000000     0.601700000000     0.782740000000     0.0414581  
C135     C      0.990640000000     0.834630000000     0.272090000000     0.0862432  
C136     C      0.970270000000     0.776290000000     0.332950000000     0.0654215  
C137     C      0.990220000000     0.798300000000     0.236690000000    -0.0854181  
C138     C      0.968520000000     0.722130000000     0.162400000000    -0.0832415  
C139     C      0.968500000000     0.739800000000     0.298060000000    -0.0824034  
C140     C      0.979160000000     0.711250000000     0.211220000000     0.0337996  
C141     C      0.978990000000     0.750200000000     0.249080000000     0.0358591  
C142     C      0.970440000000     0.685720000000     0.127320000000     0.0676064  
C143     C      0.991040000000     0.627010000000     0.187400000000     0.0684291  
C144     C      0.990730000000     0.662740000000     0.223160000000    -0.0838094  
C145     C      0.005200000000     0.882260000000     0.254850000000     0.0555997  
C146     C      0.011210000000     0.174820000000     0.320930000000     0.0869821  
C147     C      0.965520000000     0.120100000000     0.274040000000     0.0706292  
C148     C      0.007460000000     0.209920000000     0.284120000000    -0.0876546  
C149     C      0.968240000000     0.287200000000     0.218090000000    -0.086512   
C150     C      0.960980000000     0.154670000000     0.236900000000    -0.0837908  
C151     C      0.975470000000     0.238830000000     0.204520000000     0.0351116  
C152     C      0.981180000000     0.200530000000     0.242250000000     0.0360403  
C153     C      0.966750000000     0.323670000000     0.182770000000     0.0694779  
C154     C      0.976440000000     0.265400000000     0.120460000000     0.0697011  
C155     C      0.978700000000     0.227940000000     0.155030000000    -0.0845572  
C156     C      0.043550000000     0.185390000000     0.360380000000     0.0374876  
H1       H      0.905160000000     0.054460000000     0.550180000000     0.209365   
H2       H      0.058190000000     0.053600000000     0.409780000000     0.209836   
H3       H      0.055840000000     0.905240000000     0.554380000000     0.211144   
H4       H      0.907920000000     0.903520000000     0.411390000000     0.205557   
H5       H      0.064930000000     0.139010000000     0.491670000000     0.134428   
H6       H      0.148450000000     0.067390000000     0.478760000000     0.190395   
H7       H      0.135500000000     0.896930000000     0.454140000000     0.151814   
H8       H      0.062950000000     0.811780000000     0.515760000000     0.202432   
H9       H      0.897300000000     0.820330000000     0.480480000000     0.126707   
H10      H      0.818620000000     0.889280000000     0.477880000000     0.186549   
H11      H      0.830630000000     0.064490000000     0.454990000000     0.151077   
H12      H      0.887190000000     0.131330000000     0.500930000000     0.204062   
H13      H      0.068940000000     0.818490000000     0.455440000000     0.208651   
H14      H      0.780660000000     0.937050000000     0.482210000000     0.204255   
H15      H      0.906840000000     0.152370000000     0.446970000000     0.212135   
H16      H      0.184370000000     0.018790000000     0.488400000000     0.205817   
H17      H      0.905710000000     0.548940000000     0.058240000000     0.212309   
H18      H      0.902550000000     0.410330000000     0.906510000000     0.203968   
H19      H      0.055280000000     0.547610000000     0.907900000000     0.208404   
H20      H      0.052240000000     0.402050000000     0.056770000000     0.204549   
H21      H      0.819390000000     0.469460000000     0.899440000000     0.132797   
H22      H      0.894330000000     0.469240000000     0.814700000000     0.196439   
H23      H      0.065420000000     0.455880000000     0.830600000000     0.151115   
H24      H      0.135930000000     0.504020000000     0.893000000000     0.204691   
H25      H      0.136460000000     0.464900000000     0.068520000000     0.125905   
H26      H      0.068070000000     0.465630000000     0.146720000000     0.187492   
H27      H      0.894950000000     0.450410000000     0.136510000000     0.147637   
H28      H      0.824350000000     0.461910000000     0.075160000000     0.209315   
H29      H      0.151450000000     0.446280000000     0.905250000000     0.21016    
H30      H      0.020360000000     0.472050000000     0.184490000000     0.20522    
H31      H      0.807740000000     0.517970000000     0.057330000000     0.206906   
H32      H      0.942450000000     0.482060000000     0.779250000000     0.212014   
H33      H      0.409990000000     0.055770000000     0.054190000000     0.210363   
H34      H      0.553940000000     0.906510000000     0.063240000000     0.205174   
H35      H      0.412830000000     0.899300000000     0.914630000000     0.210113   
H36      H      0.551930000000     0.050370000000     0.903230000000     0.204866   
H37      H      0.485980000000     0.899050000000     0.147760000000     0.126484   
H38      H      0.487430000000     0.817810000000     0.084330000000     0.186968   
H39      H      0.510860000000     0.824610000000     0.907980000000     0.149162   
H40      H      0.451830000000     0.890000000000     0.822510000000     0.200345   
H41      H      0.484980000000     0.057470000000     0.820870000000     0.126498   
H42      H      0.483140000000     0.139890000000     0.884600000000     0.187353   
H43      H      0.505430000000     0.133580000000     0.058420000000     0.149423   
H44      H      0.448920000000     0.066630000000     0.145470000000     0.201065   
H45      H      0.512120000000     0.886020000000     0.827960000000     0.204624   
H46      H      0.476690000000     0.178700000000     0.930670000000     0.204488   
H47      H      0.509280000000     0.070020000000     0.139780000000     0.204814   
H48      H      0.483420000000     0.778210000000     0.038900000000     0.205112   
H49      H      0.702660000000     0.878560000000     0.978230000000     0.029069   
H50      H      0.872850000000     0.693580000000     0.015410000000     0.0275544  
H51      H      0.663230000000     0.704670000000     0.992430000000     0.0528337  
H52      H      0.811870000000     0.757340000000     0.020230000000     0.0525873  
H53      H      0.767690000000     0.818900000000     0.972890000000     0.0520717  
H54      H      0.718350000000     0.674520000000     0.929690000000     0.0583298  
H55      H      0.598970000000     0.764770000000     0.996480000000     0.0243259  
H56      H      0.698780000000     0.084900000000     0.995110000000     0.0290383  
H57      H      0.870710000000     0.263910000000     0.962270000000     0.0317077  
H58      H      0.653890000000     0.255120000000     0.957790000000     0.0515109  
H59      H      0.811490000000     0.200670000000     0.958190000000     0.051722   
H60      H      0.760690000000     0.146310000000     0.998210000000     0.0509174  
H61      H      0.700700000000     0.300940000000     0.006740000000     0.0567365  
H62      H      0.592720000000     0.193520000000     0.957830000000     0.0242353  
H63      H      0.366780000000     0.763620000000     0.015460000000     0.0270077  
H64      H      0.088070000000     0.693840000000     0.004930000000     0.0316882  
H65      H      0.199700000000     0.810510000000     0.971320000000     0.0506501  
H66      H      0.147390000000     0.756990000000     0.010060000000     0.0523479  
H67      H      0.305280000000     0.702270000000     0.016140000000     0.0522585  
H68      H      0.259450000000     0.655230000000     0.967970000000     0.0558776  
H69      H      0.261830000000     0.871700000000     0.973890000000     0.0294373  
H70      H      0.260470000000     0.081230000000     0.999620000000     0.0287396  
H71      H      0.188260000000     0.357800000000     0.996990000000     0.0305539  
H72      H      0.296520000000     0.248250000000     0.944580000000     0.0519898  
H73      H      0.249880000000     0.296250000000     0.995790000000     0.0525027  
H74      H      0.196310000000     0.141600000000     0.001460000000     0.0534264  
H75      H      0.144240000000     0.190310000000     0.956680000000     0.0557975  
H76      H      0.360430000000     0.187860000000     0.946250000000     0.0256065  
H77      H      0.699810000000     0.954920000000     0.878700000000     0.0287666  
H78      H      0.772710000000     0.945660000000     0.600150000000     0.0258782  
H79      H      0.657110000000     0.985780000000     0.707370000000     0.0514702  
H80      H      0.711070000000     0.939420000000     0.662090000000     0.0514901  
H81      H      0.763250000000     0.951700000000     0.817320000000     0.0522357  
H82      H      0.807840000000     0.001040000000     0.765530000000     0.0572029  
H83      H      0.594540000000     0.985630000000     0.768880000000     0.0292774  
H84      H      0.260830000000     0.995080000000     0.880580000000     0.0298839  
H85      H      0.192110000000     0.001740000000     0.600630000000     0.0271479  
H86      H      0.303310000000     0.959140000000     0.710070000000     0.0506271  
H87      H      0.253210000000     0.002560000000     0.661420000000     0.051855   
H88      H      0.197920000000     0.999740000000     0.820430000000     0.0515945  
H89      H      0.147100000000     0.962130000000     0.770240000000     0.054981   
H90      H      0.365600000000     0.958600000000     0.770470000000     0.0266734  
H91      H      0.366960000000     0.991810000000     0.199050000000     0.0278991  
H92      H      0.171750000000     0.041430000000     0.350380000000     0.0186118  
H93      H      0.196360000000     0.973500000000     0.151280000000     0.0552097  
H94      H      0.232000000000     0.046500000000     0.285130000000     0.0527883  
H95      H      0.304370000000     0.992490000000     0.261110000000     0.0527072  
H96      H      0.177590000000     0.914550000000     0.225080000000     0.0596778  
H97      H      0.259910000000     0.973190000000     0.089290000000     0.0296664  
H98      H      0.697950000000     0.008600000000     0.088280000000     0.0294816  
H99      H      0.769580000000     0.990700000000     0.368490000000     0.0255788  
H100     H      0.660020000000     0.957960000000     0.256830000000     0.0497091  
H101     H      0.707750000000     0.993820000000     0.308850000000     0.0498138  
H102     H      0.760840000000     0.012570000000     0.148020000000     0.0513582  
H103     H      0.816330000000     0.980370000000     0.195650000000     0.0545844  
H104     H      0.597330000000     0.959260000000     0.197100000000     0.0288875  
H105     H      0.999620000000     0.366600000000     0.767300000000     0.0251945  
H106     H      0.004080000000     0.088180000000     0.697680000000     0.0409843  
H107     H      0.962340000000     0.197730000000     0.815160000000     0.0539156  
H108     H      0.006340000000     0.147880000000     0.761090000000     0.0558148  
H109     H      0.001640000000     0.304790000000     0.706040000000     0.0536695  
H110     H      0.952050000000     0.256550000000     0.661320000000     0.0563882  
H111     H      0.962590000000     0.260420000000     0.876060000000     0.0359409  
H112     H      0.983440000000     0.765870000000     0.600820000000     0.0285516  
H113     H      0.012910000000     0.692720000000     0.873250000000     0.0285548  
H114     H      0.964790000000     0.818910000000     0.770730000000     0.054496   
H115     H      0.014300000000     0.757170000000     0.812690000000     0.0540656  
H116     H      0.980580000000     0.705410000000     0.664750000000     0.0533572  
H117     H      0.921020000000     0.674120000000     0.722150000000     0.0582322  
H118     H      0.968350000000     0.879040000000     0.705680000000     0.04013    
H119     H      0.961840000000     0.696170000000     0.090240000000     0.0281579  
H120     H      0.961720000000     0.765600000000     0.370130000000     0.030314   
H121     H      0.000360000000     0.652140000000     0.259830000000     0.0522973  
H122     H      0.958420000000     0.703610000000     0.309830000000     0.0512472  
H123     H      0.958100000000     0.758500000000     0.150980000000     0.0512464  
H124     H      0.000140000000     0.807690000000     0.199520000000     0.0573508  
H125     H      0.000290000000     0.590190000000     0.198690000000     0.0274106  
H126     H      0.961780000000     0.360660000000     0.195170000000     0.0240679  
H127     H      0.947640000000     0.085680000000     0.269230000000     0.037692   
H128     H      0.984460000000     0.190970000000     0.143020000000     0.0542014  
H129     H      0.940460000000     0.145930000000     0.204930000000     0.0546443  
H130     H      0.964150000000     0.297040000000     0.255940000000     0.0530209  
H131     H      0.025890000000     0.244270000000     0.287760000000     0.0570965  
H132     H      0.980170000000     0.255550000000     0.082540000000     0.0334057  
N1       N      0.830280000000     0.646170000000     0.971990000000    -0.190166   
N2       N      0.645810000000     0.826220000000     0.987170000000    -0.190219   
N3       N      0.770400000000     0.567580000000     0.880730000000    -0.0897854  
N4       N      0.820650000000     0.320160000000     0.984730000000    -0.185196   
N5       N      0.640790000000     0.134400000000     0.976800000000    -0.186822   
N6       N      0.737920000000     0.419840000000     0.029780000000    -0.0963733  
N7       N      0.138630000000     0.636940000000     0.985530000000    -0.184556   
N8       N      0.319360000000     0.822440000000     0.994180000000    -0.185658   
N9       N      0.223040000000     0.536000000000     0.946450000000    -0.0971231  
N10      N      0.129370000000     0.310790000000     0.978730000000    -0.188618   
N11      N      0.315390000000     0.130140000000     0.973470000000    -0.189876   
N12      N      0.023110000000     0.231910000000     0.951040000000    -0.0972878  
N13      N      0.826980000000     0.975490000000     0.646370000000    -0.188519   
N14      N      0.642480000000     0.970630000000     0.828500000000    -0.189939   
N15      N      0.924450000000     0.029670000000     0.722420000000    -0.091983   
N16      N      0.133050000000     0.982940000000     0.649020000000    -0.185299   
N17      N      0.318130000000     0.976840000000     0.830220000000    -0.186707   
N18      N      0.026660000000     0.954940000000     0.730940000000    -0.0932377  
N19      N      0.139500000000     0.976530000000     0.324220000000    -0.193456   
N20      N      0.318220000000     0.982210000000     0.139450000000    -0.190027   
N21      N      0.098200000000     0.850460000000     0.307020000000    -0.0975079  
N22      N      0.829880000000     0.985470000000     0.318140000000    -0.185282   
N23      N      0.642750000000     0.983900000000     0.138030000000    -0.18635    
N24      N      0.936650000000     0.990510000000     0.231970000000    -0.0902409  
N25      N      0.978040000000     0.137190000000     0.642140000000    -0.18464    
N26      N      0.981030000000     0.318380000000     0.826490000000    -0.186662   
N27      N      0.927730000000     0.218190000000     0.543310000000    -0.0972641  
N28      N      0.968310000000     0.645170000000     0.832090000000    -0.189591   
N29      N      0.976230000000     0.827130000000     0.648350000000    -0.188212   
N30      N      0.875390000000     0.566330000000     0.775280000000    -0.0992571  
N31      N      0.981200000000     0.823640000000     0.320730000000    -0.183452   
N32      N      0.981300000000     0.638330000000     0.139660000000    -0.186369   
N33      N      0.020740000000     0.925930000000     0.237940000000    -0.0861811  
N34      N      0.988720000000     0.130550000000     0.316500000000    -0.190277   
N35      N      0.971750000000     0.313040000000     0.134310000000    -0.190404   
N36      N      0.075060000000     0.196250000000     0.395960000000    -0.0957961  
O1       O      0.848440000000     0.982250000000     0.399730000000    -0.360183   
O2       O      0.909790000000     0.981220000000     0.343570000000    -0.33962    
O3       O      0.979970000000     0.115970000000     0.561480000000    -0.35064    
O4       O      0.979820000000     0.056520000000     0.619910000000    -0.339018   
O5       O      0.988870000000     0.113020000000     0.397950000000    -0.358676   
O6       O      0.983760000000     0.051770000000     0.342930000000    -0.350014   
O7       O      0.846590000000     0.973930000000     0.564930000000    -0.353963   
O8       O      0.906180000000     0.981290000000     0.620880000000    -0.349723   
O9       O      0.824420000000     0.045730000000     0.485340000000    -0.341637   
O10      O      0.813300000000     0.923920000000     0.480480000000    -0.514486   
O11      O      0.911290000000     0.131470000000     0.475100000000    -0.510834   
O12      O      0.032390000000     0.151620000000     0.482780000000    -0.312396   
O13      O      0.927450000000     0.033510000000     0.432750000000    -0.467331   
O14      O      0.925710000000     0.034480000000     0.529670000000    -0.612769   
O15      O      0.977970000000     0.845680000000     0.567140000000    -0.360903   
O16      O      0.979060000000     0.906580000000     0.622770000000    -0.346947   
O17      O      0.119170000000     0.984390000000     0.403770000000    -0.370317   
O18      O      0.060420000000     0.970310000000     0.347560000000    -0.341873   
O19      O      0.115500000000     0.984770000000     0.567180000000    -0.35245    
O20      O      0.053820000000     0.979870000000     0.622680000000    -0.343794   
O21      O      0.980540000000     0.842970000000     0.402360000000    -0.355843   
O22      O      0.983880000000     0.903470000000     0.345210000000    -0.340355   
O23      O      0.051750000000     0.825630000000     0.485390000000    -0.513324   
O24      O      0.930430000000     0.807300000000     0.486070000000    -0.324987   
O25      O      0.136340000000     0.910530000000     0.487260000000    -0.340467   
O26      O      0.152390000000     0.032770000000     0.483820000000    -0.510781   
O27      O      0.036200000000     0.924970000000     0.532770000000    -0.609892   
O28      O      0.038830000000     0.924080000000     0.436160000000    -0.467138   
O29      O      0.926350000000     0.924080000000     0.535730000000    -0.472544   
O30      O      0.037780000000     0.034030000000     0.430830000000    -0.623057   
O31      O      0.927610000000     0.923130000000     0.432080000000    -0.626751   
O32      O      0.036220000000     0.036420000000     0.534510000000    -0.478943   
O33      O      0.974520000000     0.394110000000     0.115880000000    -0.368752   
O34      O      0.974240000000     0.338630000000     0.054910000000    -0.354056   
O35      O      0.847630000000     0.564740000000     0.971560000000    -0.352676   
O36      O      0.908170000000     0.619170000000     0.983200000000    -0.35304    
O37      O      0.842260000000     0.400990000000     0.984190000000    -0.350899   
O38      O      0.901150000000     0.342270000000     0.982330000000    -0.347032   
O39      O      0.984330000000     0.557630000000     0.119470000000    -0.35187    
O40      O      0.979320000000     0.615620000000     0.059530000000    -0.350545   
O41      O      0.911960000000     0.481630000000     0.139740000000    -0.338681   
O42      O      0.033580000000     0.470230000000     0.151850000000    -0.513671   
O43      O      0.826600000000     0.488620000000     0.052150000000    -0.513292   
O44      O      0.807150000000     0.479890000000     0.931710000000    -0.3108     
O45      O      0.923200000000     0.430780000000     0.037590000000    -0.470122   
O46      O      0.925380000000     0.527660000000     0.038210000000    -0.611159   
O47      O      0.116630000000     0.556200000000     0.985170000000    -0.347711   
O48      O      0.057850000000     0.615130000000     0.984790000000    -0.347454   
O49      O      0.981570000000     0.399190000000     0.846530000000    -0.360898   
O50      O      0.977120000000     0.341250000000     0.906510000000    -0.346877   
O51      O      0.968390000000     0.563690000000     0.849900000000    -0.347678   
O52      O      0.981410000000     0.618520000000     0.909920000000    -0.354201   
O53      O      0.111630000000     0.392320000000     0.982270000000    -0.364502   
O54      O      0.050110000000     0.338190000000     0.978710000000    -0.348246   
O55      O      0.133000000000     0.475240000000     0.913240000000    -0.510525   
O56      O      0.150140000000     0.470740000000     0.035530000000    -0.319235   
O57      O      0.048310000000     0.487610000000     0.827700000000    -0.343144   
O58      O      0.928210000000     0.477350000000     0.811220000000    -0.510324   
O59      O      0.035210000000     0.526570000000     0.927810000000    -0.611282   
O60      O      0.033330000000     0.429430000000     0.926810000000    -0.467386   
O61      O      0.036420000000     0.527770000000     0.038960000000    -0.476165   
O62      O      0.922680000000     0.430210000000     0.926500000000    -0.627733   
O63      O      0.033100000000     0.424170000000     0.037060000000    -0.621956   
O64      O      0.925420000000     0.533540000000     0.928120000000    -0.467285   
O65      O      0.560230000000     0.114200000000     0.974090000000    -0.36317    
O66      O      0.617900000000     0.054300000000     0.981250000000    -0.35003    
O67      O      0.398750000000     0.981400000000     0.119250000000    -0.363518   
O68      O      0.342100000000     0.979730000000     0.059480000000    -0.354404   
O69      O      0.561940000000     0.980410000000     0.119480000000    -0.360376   
O70      O      0.618580000000     0.984780000000     0.058220000000    -0.34796    
O71      O      0.396420000000     0.111640000000     0.970330000000    -0.356189   
O72      O      0.341210000000     0.051370000000     0.982610000000    -0.355083   
O73      O      0.473800000000     0.136460000000     0.041910000000    -0.339773   
O74      O      0.479680000000     0.145810000000     0.919020000000    -0.512821   
O75      O      0.479320000000     0.053710000000     0.133040000000    -0.51326    
O76      O      0.480560000000     0.932770000000     0.158910000000    -0.324784   
O77      O      0.527820000000     0.036420000000     0.035180000000    -0.470167   
O78      O      0.431320000000     0.034960000000     0.035350000000    -0.607819   
O79      O      0.399000000000     0.975070000000     0.849000000000    -0.35792    
O80      O      0.342090000000     0.977110000000     0.910060000000    -0.348549   
O81      O      0.564620000000     0.844520000000     0.990670000000    -0.366336   
O82      O      0.620010000000     0.905450000000     0.985470000000    -0.356718   
O83      O      0.400120000000     0.842410000000     0.997000000000    -0.350268   
O84      O      0.342800000000     0.902270000000     0.987050000000    -0.3499     
O85      O      0.562030000000     0.973690000000     0.848650000000    -0.366378   
O86      O      0.618670000000     0.973120000000     0.908560000000    -0.353772   
O87      O      0.481750000000     0.902580000000     0.834890000000    -0.514165   
O88      O      0.480790000000     0.023800000000     0.809550000000    -0.324563   
O89      O      0.480860000000     0.818600000000     0.927180000000    -0.338813   
O90      O      0.484750000000     0.811310000000     0.050040000000    -0.513845   
O91      O      0.433310000000     0.920190000000     0.933190000000    -0.613033   
O92      O      0.529980000000     0.921170000000     0.932760000000    -0.467252   
O93      O      0.427600000000     0.030860000000     0.925180000000    -0.474417   
O94      O      0.532770000000     0.925530000000     0.042490000000    -0.623917   
O95      O      0.531270000000     0.031240000000     0.924440000000    -0.624103   
O96      O      0.429030000000     0.924820000000     0.044080000000    -0.474671   
Zr1      Zr     0.881580000000     0.977570000000     0.482450000000     1.29326    
Zr2      Zr     0.982260000000     0.079720000000     0.480660000000     1.30223    
Zr3      Zr     0.981540000000     0.878740000000     0.484440000000     1.29438    
Zr4      Zr     0.082370000000     0.981270000000     0.484570000000     1.29655    
Zr5      Zr     0.983680000000     0.977940000000     0.391630000000     1.27301    
Zr6      Zr     0.980620000000     0.980650000000     0.574290000000     1.27173    
Zr7      Zr     0.980490000000     0.476730000000     0.083130000000     1.29494    
Zr8      Zr     0.879110000000     0.481900000000     0.981750000000     1.30266    
Zr9      Zr     0.079580000000     0.475490000000     0.983360000000     1.29824    
Zr10     Zr     0.978250000000     0.480850000000     0.882100000000     1.29782    
Zr11     Zr     0.976860000000     0.387380000000     0.981350000000     1.27327    
Zr12     Zr     0.981720000000     0.570150000000     0.983990000000     1.26198    
Zr13     Zr     0.478820000000     0.078470000000     0.975830000000     1.29468    
Zr14     Zr     0.480400000000     0.981440000000     0.084430000000     1.29679    
Zr15     Zr     0.480560000000     0.974690000000     0.883750000000     1.29787    
Zr16     Zr     0.481830000000     0.877770000000     0.992250000000     1.29374    
Zr17     Zr     0.571810000000     0.979190000000     0.983590000000     1.26674    
Zr18     Zr     0.389130000000     0.977290000000     0.984630000000     1.26469    


