data_structure

_audit_creation_method RASPA-1.0
_audit_creation_date 2023-6-5
_audit_author_name 'Poobodin Mano'

_cell_length_a    27.5445
_cell_length_b    27.4724
_cell_length_c    27.5052
_cell_angle_alpha 89.2565
_cell_angle_beta  89.2563
_cell_angle_gamma 89.2563
_cell_volume      20808.3

_symmetry_cell_setting          triclinic
_symmetry_space_group_name_Hall 'P 1'
_symmetry_space_group_name_H-M  'P 1'
_symmetry_Int_Tables_number     1

_symmetry_equiv_pos_as_xyz 'x,y,z'

loop_
_atom_site_label
_atom_site_type_symbol
_atom_site_fract_x
_atom_site_fract_y
_atom_site_fract_z
_atom_site_charge
C1       C      0.857340000000     0.977370000000     0.355820000000     0.38815    
C2       C      0.978930000000     0.101120000000     0.605990000000     0.380106   
C3       C      0.981000000000     0.096230000000     0.352530000000     0.397861   
C4       C      0.858720000000     0.978120000000     0.609150000000     0.389897   
C5       C      0.972830000000     0.861070000000     0.610880000000     0.390117   
C6       C      0.097050000000     0.980310000000     0.354090000000     0.399937   
C7       C      0.098710000000     0.980310000000     0.607640000000     0.380151   
C8       C      0.985530000000     0.856190000000     0.357280000000     0.381535   
C9       C      0.977980000000     0.349580000000     0.098990000000     0.390365   
C10      C      0.858330000000     0.604930000000     0.988680000000     0.398004   
C11      C      0.859750000000     0.351120000000     0.985260000000     0.383986   
C12      C      0.993080000000     0.603090000000     0.102590000000     0.396825   
C13      C      0.095280000000     0.607590000000     0.987000000000     0.393558   
C14      C      0.984040000000     0.354600000000     0.859690000000     0.392814   
C15      C      0.979520000000     0.608690000000     0.864980000000     0.400228   
C16      C      0.098000000000     0.352590000000     0.967760000000     0.404729   
C17      C      0.603820000000     0.098870000000     0.979680000000     0.37832    
C18      C      0.349380000000     0.976370000000     0.100420000000     0.390479   
C19      C      0.602220000000     0.981390000000     0.103970000000     0.376648   
C20      C      0.351240000000     0.099150000000     0.973810000000     0.392933   
C21      C      0.352670000000     0.983290000000     0.860570000000     0.389739   
C22      C      0.603860000000     0.858080000000     0.990170000000     0.392232   
C23      C      0.350850000000     0.859120000000     0.992080000000     0.380588   
C24      C      0.605590000000     0.973970000000     0.863430000000     0.3971     
C25      C      0.832880000000     0.685140000000     0.013620000000     0.166397   
C26      C      0.779660000000     0.633760000000     0.970720000000     0.0759417  
C27      C      0.797370000000     0.722100000000     0.013450000000    -0.109241   
C28      C      0.725130000000     0.801970000000     0.989220000000    -0.0784954  
C29      C      0.744040000000     0.669900000000     0.970040000000    -0.0916767  
C30      C      0.713820000000     0.752540000000     0.993180000000     0.0335286  
C31      C      0.752440000000     0.714580000000     0.991850000000     0.050042   
C32      C      0.688030000000     0.836900000000     0.989620000000     0.0785575  
C33      C      0.628890000000     0.775220000000     0.997480000000     0.070809   
C34      C      0.665050000000     0.739500000000     0.998280000000    -0.0836293  
C35      C      0.838150000000     0.265310000000     0.980790000000     0.159789   
C36      C      0.777450000000     0.326160000000     0.992630000000     0.0703079  
C37      C      0.801870000000     0.229810000000     0.977970000000    -0.107303   
C38      C      0.723260000000     0.155090000000     0.994940000000    -0.0800874  
C39      C      0.741060000000     0.291120000000     0.992110000000    -0.0890537  
C40      C      0.713690000000     0.204030000000     0.982250000000     0.0304171  
C41      C      0.752600000000     0.242060000000     0.983940000000     0.046999   
C42      C      0.686560000000     0.120300000000     0.992880000000     0.0677085  
C43      C      0.630060000000     0.180810000000     0.967780000000     0.0662993  
C44      C      0.666190000000     0.216190000000     0.968030000000    -0.0809122  
C45      C      0.115220000000     0.693550000000     0.992860000000     0.179496   
C46      C      0.176490000000     0.632200000000     0.999280000000     0.0754867  
C47      C      0.150980000000     0.729280000000     0.998950000000    -0.102549   
C48      C      0.231070000000     0.802300000000     0.982350000000    -0.0800488  
C49      C      0.212460000000     0.667290000000     0.003000000000    -0.0865598  
C50      C      0.239430000000     0.755410000000     0.002090000000     0.0331963  
C51      C      0.200490000000     0.717000000000     0.002460000000     0.051254   
C52      C      0.268160000000     0.836790000000     0.980560000000     0.0691705  
C53      C      0.323100000000     0.779950000000     0.015420000000     0.0701995  
C54      C      0.286340000000     0.745260000000     0.019590000000    -0.0804081  
C55      C      0.175710000000     0.323690000000     0.938750000000     0.169459   
C56      C      0.122020000000     0.271090000000     0.982290000000     0.0791315  
C57      C      0.211620000000     0.287200000000     0.939330000000    -0.110719   
C58      C      0.289920000000     0.217870000000     0.971160000000    -0.0824018  
C59      C      0.157140000000     0.234350000000     0.983310000000    -0.0925184  
C60      C      0.241540000000     0.204620000000     0.965060000000     0.0331406  
C61      C      0.202860000000     0.242450000000     0.962460000000     0.0521278  
C62      C      0.326050000000     0.182180000000     0.973640000000     0.0733937  
C63      C      0.267580000000     0.120230000000     0.965640000000     0.073112   
C64      C      0.230570000000     0.155110000000     0.962140000000    -0.0815727  
C65      C      0.687520000000     0.953690000000     0.838670000000     0.16534    
C66      C      0.633580000000     0.995060000000     0.784740000000     0.0744137  
C67      C      0.724750000000     0.956830000000     0.803610000000    -0.110632   
C68      C      0.740960000000     0.970550000000     0.671340000000    -0.0835802  
C69      C      0.669820000000     0.998280000000     0.749350000000    -0.0925855  
C70      C      0.753660000000     0.978710000000     0.719600000000     0.0321442  
C71      C      0.715910000000     0.978740000000     0.758370000000     0.0499425  
C72      C      0.776500000000     0.970580000000     0.635040000000     0.0718424  
C73      C      0.837370000000     0.985310000000     0.693080000000     0.0709379  
C74      C      0.802540000000     0.986050000000     0.730330000000    -0.0825626  
C75      C      0.324430000000     0.006400000000     0.780410000000     0.163101   
C76      C      0.271690000000     0.967020000000     0.836980000000     0.0729583  
C77      C      0.288280000000     0.004550000000     0.744800000000    -0.106738   
C78      C      0.217530000000     0.976650000000     0.667420000000    -0.0798948  
C79      C      0.235120000000     0.965040000000     0.802120000000    -0.089044   
C80      C      0.204730000000     0.981570000000     0.716680000000     0.0314976  
C81      C      0.243130000000     0.983440000000     0.754970000000     0.047691   
C82      C      0.181780000000     0.976480000000     0.631740000000     0.0694565  
C83      C      0.120040000000     0.984250000000     0.691830000000     0.0684981  
C84      C      0.155030000000     0.985220000000     0.728490000000    -0.0794451  
C85      C      0.175220000000     0.004050000000     0.323240000000     0.166342   
C86      C      0.120320000000     0.961210000000     0.273590000000     0.0788576  
C87      C      0.210770000000     0.000770000000     0.286780000000    -0.110208   
C88      C      0.287380000000     0.965150000000     0.218010000000    -0.0826682  
C89      C      0.155060000000     0.957960000000     0.236560000000    -0.0918288  
C90      C      0.239090000000     0.973840000000     0.205160000000     0.0321712  
C91      C      0.201110000000     0.977160000000     0.243350000000     0.0503555  
C92      C      0.323590000000     0.965800000000     0.182490000000     0.0697395  
C93      C      0.265190000000     0.980930000000     0.121240000000     0.0708828  
C94      C      0.227980000000     0.981110000000     0.156080000000    -0.0820365  
C95      C      0.832710000000     0.960140000000     0.273500000000     0.161234   
C96      C      0.777260000000     0.995980000000     0.329790000000     0.0720878  
C97      C      0.797090000000     0.962970000000     0.237200000000    -0.107717   
C98      C      0.662650000000     0.976910000000     0.222620000000    -0.0795492  
C99      C      0.741360000000     0.998980000000     0.294370000000    -0.0913543  
C100     C      0.711660000000     0.982840000000     0.209470000000     0.0295051  
C101     C      0.750650000000     0.982180000000     0.247240000000     0.048162   
C102     C      0.626700000000     0.977050000000     0.187080000000     0.0646454  
C103     C      0.686030000000     0.987890000000     0.125060000000     0.0672741  
C104     C      0.722860000000     0.988640000000     0.159780000000    -0.079392   
C105     C      0.005400000000     0.327520000000     0.778700000000     0.165762   
C106     C      0.969160000000     0.273260000000     0.835950000000     0.0736796  
C107     C      0.003170000000     0.291620000000     0.742790000000    -0.106428   
C108     C      0.975300000000     0.220340000000     0.665610000000    -0.0792635  
C109     C      0.966670000000     0.236980000000     0.800810000000    -0.0855775  
C110     C      0.981230000000     0.207510000000     0.714780000000     0.0319786  
C111     C      0.983340000000     0.245830000000     0.753200000000     0.0479195  
C112     C      0.974830000000     0.184490000000     0.629920000000     0.0684105  
C113     C      0.984190000000     0.122690000000     0.689890000000     0.06884    
C114     C      0.985620000000     0.157730000000     0.726470000000    -0.0796812  
C115     C      0.002230000000     0.638850000000     0.785910000000     0.170256   
C116     C      0.961920000000     0.690390000000     0.843000000000     0.0842641  
C117     C      0.998200000000     0.675210000000     0.750260000000    -0.113202   
C118     C      0.961090000000     0.744440000000     0.674800000000    -0.0822279  
C119     C      0.957910000000     0.727370000000     0.808120000000    -0.0896695  
C120     C      0.970920000000     0.757500000000     0.722620000000     0.0322682  
C121     C      0.975240000000     0.719520000000     0.760880000000     0.0530828  
C122     C      0.961320000000     0.779610000000     0.638090000000     0.0698276  
C123     C      0.977910000000     0.841010000000     0.695220000000     0.0710763  
C124     C      0.978570000000     0.806530000000     0.732850000000    -0.0817645  
C125     C      0.017520000000     0.685310000000     0.126220000000     0.169315   
C126     C      0.981320000000     0.629850000000     0.182880000000     0.0767985  
C127     C      0.017860000000     0.720910000000     0.163000000000    -0.102097   
C128     C      0.991410000000     0.799570000000     0.236380000000    -0.0761879  
C129     C      0.980740000000     0.664980000000     0.219060000000    -0.0873627  
C130     C      0.997040000000     0.749940000000     0.248290000000     0.0324743  
C131     C      0.998730000000     0.711550000000     0.209670000000     0.0496922  
C132     C      0.988460000000     0.834580000000     0.273050000000     0.0735477  
C133     C      0.995880000000     0.773120000000     0.333570000000     0.0686952  
C134     C      0.999920000000     0.737340000000     0.297860000000    -0.0801946  
C135     C      0.005750000000     0.174120000000     0.321350000000     0.166851   
C136     C      0.963190000000     0.119120000000     0.271520000000     0.0779428  
C137     C      0.002900000000     0.209700000000     0.284790000000    -0.110392   
C138     C      0.967550000000     0.286770000000     0.216310000000    -0.083448   
C139     C      0.960370000000     0.153930000000     0.234370000000    -0.0910476  
C140     C      0.976180000000     0.238400000000     0.203210000000     0.0324196  
C141     C      0.979510000000     0.200100000000     0.241250000000     0.0501584  
C142     C      0.968050000000     0.323280000000     0.180970000000     0.0713439  
C143     C      0.983020000000     0.265070000000     0.119390000000     0.0730696  
C144     C      0.983330000000     0.227560000000     0.154040000000    -0.0801445  
H1       H      0.902500000000     0.054240000000     0.549920000000     0.210762   
H2       H      0.052720000000     0.052860000000     0.407450000000     0.227336   
H3       H      0.052940000000     0.904140000000     0.552180000000     0.212214   
H4       H      0.903410000000     0.901480000000     0.411350000000     0.211014   
H5       H      0.063140000000     0.137410000000     0.481890000000     0.141728   
H6       H      0.144060000000     0.066500000000     0.480760000000     0.208642   
H7       H      0.130470000000     0.895380000000     0.448490000000     0.151564   
H8       H      0.053650000000     0.806860000000     0.519900000000     0.205056   
H9       H      0.891530000000     0.821370000000     0.483750000000     0.128876   
H10      H      0.813310000000     0.889540000000     0.479230000000     0.189629   
H11      H      0.827110000000     0.063970000000     0.453280000000     0.149744   
H12      H      0.894490000000     0.144810000000     0.507540000000     0.203099   
H13      H      0.066910000000     0.817640000000     0.461250000000     0.207477   
H14      H      0.776210000000     0.937660000000     0.487020000000     0.206819   
H15      H      0.893560000000     0.140910000000     0.446900000000     0.208467   
H16      H      0.180610000000     0.017320000000     0.480450000000     0.224061   
H17      H      0.905400000000     0.546390000000     0.060280000000     0.216967   
H18      H      0.902340000000     0.407770000000     0.907120000000     0.206762   
H19      H      0.051650000000     0.549630000000     0.906010000000     0.214781   
H20      H      0.056590000000     0.403750000000     0.053350000000     0.204681   
H21      H      0.819270000000     0.470710000000     0.899710000000     0.127439   
H22      H      0.882270000000     0.492570000000     0.824580000000     0.194283   
H23      H      0.066180000000     0.477170000000     0.831860000000     0.154903   
H24      H      0.130420000000     0.505040000000     0.885920000000     0.207009   
H25      H      0.134970000000     0.479540000000     0.066880000000     0.130976   
H26      H      0.071080000000     0.465200000000     0.145170000000     0.190458   
H27      H      0.895880000000     0.453120000000     0.134620000000     0.14947    
H28      H      0.812170000000     0.508720000000     0.066420000000     0.205294   
H29      H      0.172230000000     0.478530000000     0.921320000000     0.230019   
H30      H      0.023510000000     0.470180000000     0.183390000000     0.208392   
H31      H      0.817840000000     0.448130000000     0.070650000000     0.205987   
H32      H      0.924710000000     0.473380000000     0.784870000000     0.221481   
H33      H      0.406460000000     0.055490000000     0.053100000000     0.210531   
H34      H      0.548490000000     0.904660000000     0.061680000000     0.206426   
H35      H      0.409630000000     0.902120000000     0.909820000000     0.211126   
H36      H      0.551260000000     0.051730000000     0.904360000000     0.20599    
H37      H      0.478560000000     0.896220000000     0.144770000000     0.128089   
H38      H      0.479910000000     0.812150000000     0.076310000000     0.188842   
H39      H      0.509470000000     0.823380000000     0.905870000000     0.152271   
H40      H      0.448290000000     0.895920000000     0.817430000000     0.206772   
H41      H      0.488310000000     0.060460000000     0.819230000000     0.133925   
H42      H      0.481320000000     0.142490000000     0.886500000000     0.194208   
H43      H      0.505350000000     0.132100000000     0.060340000000     0.149946   
H44      H      0.440220000000     0.062420000000     0.145390000000     0.202888   
H45      H      0.507850000000     0.887720000000     0.826270000000     0.210676   
H46      H      0.477490000000     0.180550000000     0.933500000000     0.207836   
H47      H      0.500400000000     0.068730000000     0.140010000000     0.206028   
H48      H      0.478700000000     0.775540000000     0.028150000000     0.205484   
H49      H      0.698460000000     0.874730000000     0.986540000000     0.0478729  
H50      H      0.771590000000     0.600050000000     0.952540000000     0.0302937  
H51      H      0.654600000000     0.701850000000     0.003020000000     0.0528278  
H52      H      0.710250000000     0.662820000000     0.951880000000     0.0563775  
H53      H      0.762320000000     0.813760000000     0.984930000000     0.062819   
H54      H      0.804100000000     0.755570000000     0.032480000000     0.0791289  
H55      H      0.591650000000     0.763200000000     0.000950000000     0.0249459  
H56      H      0.695900000000     0.083180000000     0.003290000000     0.0345535  
H57      H      0.765600000000     0.363430000000     0.998530000000     0.0285311  
H58      H      0.656580000000     0.252810000000     0.956480000000     0.0509389  
H59      H      0.703960000000     0.302980000000     0.998600000000     0.0534666  
H60      H      0.758660000000     0.143340000000     0.007360000000     0.0559889  
H61      H      0.812900000000     0.192500000000     0.971460000000     0.0756511  
H62      H      0.594070000000     0.192420000000     0.956620000000     0.0250226  
H63      H      0.259650000000     0.872140000000     0.964630000000     0.0296193  
H64      H      0.188830000000     0.594560000000     0.999920000000     0.0318688  
H65      H      0.295260000000     0.710720000000     0.036720000000     0.0520467  
H66      H      0.249730000000     0.654680000000     0.004660000000     0.055392   
H67      H      0.196520000000     0.812640000000     0.966910000000     0.0563044  
H68      H      0.139350000000     0.767030000000     0.998270000000     0.0803409  
H69      H      0.358630000000     0.769850000000     0.029080000000     0.0270067  
H70      H      0.362960000000     0.194300000000     0.978490000000     0.0291747  
H71      H      0.087750000000     0.263690000000     0.000650000000     0.0316384  
H72      H      0.193750000000     0.143210000000     0.956630000000     0.0550242  
H73      H      0.148830000000     0.200410000000     0.001880000000     0.0577859  
H74      H      0.299990000000     0.255620000000     0.974710000000     0.056856   
H75      H      0.245700000000     0.293310000000     0.920250000000     0.0803447  
H76      H      0.257510000000     0.082340000000     0.963020000000     0.032169   
H77      H      0.764760000000     0.964040000000     0.598240000000     0.0269023  
H78      H      0.598680000000     0.011610000000     0.776230000000     0.0305473  
H79      H      0.813840000000     0.992890000000     0.767160000000     0.0558826  
H80      H      0.661650000000     0.016340000000     0.715130000000     0.0574793  
H81      H      0.703780000000     0.963490000000     0.661530000000     0.0537567  
H82      H      0.759500000000     0.939360000000     0.810640000000     0.0777048  
H83      H      0.874770000000     0.991430000000     0.702930000000     0.0306297  
H84      H      0.194000000000     0.972690000000     0.594340000000     0.0311398  
H85      H      0.263860000000     0.950920000000     0.872390000000     0.0278941  
H86      H      0.142960000000     0.989760000000     0.765770000000     0.0530773  
H87      H      0.201130000000     0.948010000000     0.812040000000     0.0551228  
H88      H      0.255130000000     0.972480000000     0.656120000000     0.0564583  
H89      H      0.294970000000     0.021840000000     0.709790000000     0.0782899  
H90      H      0.082230000000     0.987540000000     0.702880000000     0.030911   
H91      H      0.360530000000     0.959350000000     0.194370000000     0.0323575  
H92      H      0.085610000000     0.944240000000     0.267500000000     0.0321974  
H93      H      0.191050000000     0.988290000000     0.144720000000     0.0548685  
H94      H      0.146220000000     0.939410000000     0.203380000000     0.0580549  
H95      H      0.297320000000     0.958170000000     0.255470000000     0.0566156  
H96      H      0.245200000000     0.018630000000     0.291590000000     0.0789129  
H97      H      0.255230000000     0.987520000000     0.083700000000     0.0309566  
H98      H      0.589530000000     0.972080000000     0.199420000000     0.0313485  
H99      H      0.768030000000     0.010330000000     0.365330000000     0.025094   
H100     H      0.759870000000     0.994240000000     0.147470000000     0.0557272  
H101     H      0.706550000000     0.015080000000     0.304080000000     0.0546875  
H102     H      0.651790000000     0.971210000000     0.260190000000     0.0517461  
H103     H      0.805110000000     0.947420000000     0.201980000000     0.0773562  
H104     H      0.696730000000     0.992540000000     0.087230000000     0.0335104  
H105     H      0.970240000000     0.196620000000     0.592580000000     0.0326621  
H106     H      0.954520000000     0.264750000000     0.871760000000     0.0450404  
H107     H      0.991090000000     0.145570000000     0.763600000000     0.0543586  
H108     H      0.950600000000     0.202510000000     0.810990000000     0.0591462  
H109     H      0.970540000000     0.258000000000     0.654410000000     0.056994   
H110     H      0.019220000000     0.299030000000     0.707360000000     0.0800106  
H111     H      0.988070000000     0.084830000000     0.700930000000     0.0311806  
H112     H      0.954170000000     0.767580000000     0.601510000000     0.031861   
H113     H      0.946280000000     0.697240000000     0.878700000000     0.0411173  
H114     H      0.986600000000     0.818100000000     0.769340000000     0.0566574  
H115     H      0.940090000000     0.761320000000     0.817840000000     0.0612207  
H116     H      0.953700000000     0.707060000000     0.665570000000     0.0573562  
H117     H      0.014940000000     0.669540000000     0.714870000000     0.080659   
H118     H      0.984980000000     0.878460000000     0.704530000000     0.0308019  
H119     H      0.984140000000     0.872300000000     0.261700000000     0.0472755  
H120     H      0.965600000000     0.595000000000     0.192630000000     0.029521   
H121     H      0.005600000000     0.699930000000     0.309450000000     0.0536621  
H122     H      0.964780000000     0.655570000000     0.254040000000     0.0563202  
H123     H      0.988250000000     0.811620000000     0.198930000000     0.0623179  
H124     H      0.033520000000     0.756070000000     0.154850000000     0.0793643  
H125     H      0.998050000000     0.761090000000     0.371180000000     0.0304523  
H126     H      0.961530000000     0.360240000000     0.193020000000     0.0260287  
H127     H      0.946190000000     0.084360000000     0.265410000000     0.03516    
H128     H      0.990580000000     0.190610000000     0.142480000000     0.0570863  
H129     H      0.942070000000     0.145080000000     0.201070000000     0.0593266  
H130     H      0.960670000000     0.296560000000     0.253830000000     0.056127   
H131     H      0.020820000000     0.244150000000     0.289690000000     0.0789835  
H132     H      0.989920000000     0.255360000000     0.081840000000     0.0412475  
N1       N      0.823960000000     0.641270000000     0.991500000000    -0.200116   
N2       N      0.640160000000     0.823590000000     0.992520000000    -0.187939   
N3       N      0.875690000000     0.692470000000     0.041820000000    -0.0306672  
N4       N      0.825850000000     0.314110000000     0.986560000000    -0.194101   
N5       N      0.640040000000     0.133070000000     0.979960000000    -0.186048   
N6       N      0.887630000000     0.248530000000     0.978610000000    -0.0307698  
N7       N      0.128310000000     0.644530000000     0.992890000000    -0.19385    
N8       N      0.314200000000     0.825490000000     0.996060000000    -0.186001   
N9       N      0.070010000000     0.711370000000     0.973040000000    -0.0334694  
N10      N      0.131720000000     0.315990000000     0.962130000000    -0.199413   
N11      N      0.315030000000     0.133670000000     0.971090000000    -0.189029   
N12      N      0.184350000000     0.366630000000     0.909600000000    -0.0340524  
N13      N      0.642240000000     0.973640000000     0.829250000000    -0.199473   
N14      N      0.824410000000     0.977940000000     0.645690000000    -0.189302   
N15      N      0.695960000000     0.923730000000     0.880930000000    -0.031738   
N16      N      0.316570000000     0.986110000000     0.826150000000    -0.195495   
N17      N      0.133230000000     0.980330000000     0.643620000000    -0.184935   
N18      N      0.367010000000     0.034310000000     0.769290000000    -0.0302809  
N19      N      0.130720000000     0.982450000000     0.317140000000    -0.200094   
N20      N      0.312760000000     0.974280000000     0.134490000000    -0.189732   
N21      N      0.184620000000     0.034650000000     0.363990000000    -0.0320445  
N22      N      0.822880000000     0.977450000000     0.319700000000    -0.195745   
N23      N      0.638150000000     0.982170000000     0.138490000000    -0.185148   
N24      N      0.876620000000     0.933520000000     0.262630000000    -0.0309488  
N25      N      0.986860000000     0.318730000000     0.824950000000    -0.194322   
N26      N      0.979270000000     0.135880000000     0.641780000000    -0.185377   
N27      N      0.032180000000     0.370790000000     0.767310000000    -0.0323196  
N28      N      0.981950000000     0.645880000000     0.831510000000    -0.198595   
N29      N      0.970480000000     0.827450000000     0.648010000000    -0.189695   
N30      N      0.032280000000     0.597040000000     0.775310000000    -0.0304718  
N31      N      0.997820000000     0.639600000000     0.136330000000    -0.192365   
N32      N      0.989890000000     0.821520000000     0.321470000000    -0.183141   
N33      N      0.040590000000     0.698270000000     0.080150000000    -0.0368537  
N34      N      0.983920000000     0.129630000000     0.315270000000    -0.199418   
N35      N      0.976230000000     0.312670000000     0.132880000000    -0.189095   
N36      N      0.036010000000     0.183490000000     0.362300000000    -0.031038   
O1       O      0.842270000000     0.978980000000     0.400710000000    -0.36244    
O2       O      0.902930000000     0.976270000000     0.343480000000    -0.332502   
O3       O      0.979160000000     0.115690000000     0.560860000000    -0.355817   
O4       O      0.978490000000     0.055580000000     0.618970000000    -0.348385   
O5       O      0.982450000000     0.112050000000     0.396670000000    -0.346263   
O6       O      0.976630000000     0.050860000000     0.341580000000    -0.35051    
O7       O      0.843880000000     0.974970000000     0.564800000000    -0.357158   
O8       O      0.903890000000     0.981690000000     0.620770000000    -0.354417   
O9       O      0.821870000000     0.046610000000     0.484650000000    -0.338321   
O10      O      0.808590000000     0.924210000000     0.483050000000    -0.51262    
O11      O      0.908230000000     0.132330000000     0.477620000000    -0.513351   
O12      O      0.029770000000     0.150700000000     0.478310000000    -0.30347    
O13      O      0.922680000000     0.033230000000     0.432110000000    -0.470878   
O14      O      0.922660000000     0.033990000000     0.529240000000    -0.612039   
O15      O      0.970750000000     0.845460000000     0.566690000000    -0.362051   
O16      O      0.977480000000     0.906390000000     0.621850000000    -0.355853   
O17      O      0.112330000000     0.982120000000     0.398400000000    -0.351045   
O18      O      0.051930000000     0.976210000000     0.342640000000    -0.35189    
O19      O      0.113600000000     0.980510000000     0.562640000000    -0.351598   
O20      O      0.053130000000     0.980020000000     0.620200000000    -0.346882   
O21      O      0.984000000000     0.841600000000     0.402420000000    -0.354055   
O22      O      0.983100000000     0.901690000000     0.344310000000    -0.337629   
O23      O      0.046350000000     0.823100000000     0.489440000000    -0.513693   
O24      O      0.924830000000     0.807350000000     0.482900000000    -0.324891   
O25      O      0.132880000000     0.909240000000     0.481410000000    -0.336718   
O26      O      0.148340000000     0.031540000000     0.480310000000    -0.50873    
O27      O      0.033060000000     0.924010000000     0.530860000000    -0.611467   
O28      O      0.033590000000     0.922840000000     0.433830000000    -0.471163   
O29      O      0.923080000000     0.923780000000     0.535500000000    -0.471951   
O30      O      0.032720000000     0.033050000000     0.428700000000    -0.625463   
O31      O      0.922770000000     0.921760000000     0.431760000000    -0.628697   
O32      O      0.033640000000     0.035440000000     0.532010000000    -0.477553   
O33      O      0.978220000000     0.393840000000     0.114600000000    -0.367485   
O34      O      0.979630000000     0.338390000000     0.053470000000    -0.347084   
O35      O      0.843410000000     0.560730000000     0.983870000000    -0.362346   
O36      O      0.903530000000     0.616660000000     0.990230000000    -0.336296   
O37      O      0.844070000000     0.395950000000     0.986370000000    -0.358507   
O38      O      0.905440000000     0.339940000000     0.982040000000    -0.330188   
O39      O      0.992040000000     0.558120000000     0.118040000000    -0.348871   
O40      O      0.986860000000     0.615030000000     0.057680000000    -0.318839   
O41      O      0.915210000000     0.482640000000     0.140010000000    -0.338821   
O42      O      0.036540000000     0.469280000000     0.150620000000    -0.512645   
O43      O      0.825310000000     0.478430000000     0.054130000000    -0.513391   
O44      O      0.806560000000     0.478850000000     0.932490000000    -0.325461   
O45      O      0.925820000000     0.429050000000     0.037960000000    -0.468414   
O46      O      0.924640000000     0.525680000000     0.039190000000    -0.612628   
O47      O      0.111120000000     0.562680000000     0.987320000000    -0.351185   
O48      O      0.049970000000     0.618950000000     0.982920000000    -0.322779   
O49      O      0.983320000000     0.399780000000     0.845290000000    -0.336651   
O50      O      0.980750000000     0.341490000000     0.905030000000    -0.340375   
O51      O      0.979100000000     0.564540000000     0.849060000000    -0.342279   
O52      O      0.977020000000     0.619680000000     0.910470000000    -0.344715   
O53      O      0.113010000000     0.397100000000     0.968080000000    -0.340221   
O54      O      0.053230000000     0.340460000000     0.974150000000    -0.353309   
O55      O      0.139040000000     0.488920000000     0.916060000000    -0.510086   
O56      O      0.148490000000     0.471540000000     0.034380000000    -0.327704   
O57      O      0.034860000000     0.483640000000     0.815640000000    -0.289765   
O58      O      0.915360000000     0.482640000000     0.817480000000    -0.518746   
O59      O      0.031920000000     0.528100000000     0.925790000000    -0.617985   
O60      O      0.033060000000     0.432240000000     0.924330000000    -0.458988   
O61      O      0.035530000000     0.529430000000     0.036630000000    -0.477394   
O62      O      0.922070000000     0.428490000000     0.926730000000    -0.628565   
O63      O      0.036120000000     0.425680000000     0.034720000000    -0.621628   
O64      O      0.920940000000     0.532460000000     0.928400000000    -0.476927   
O65      O      0.559220000000     0.114170000000     0.975760000000    -0.363446   
O66      O      0.615870000000     0.053170000000     0.983490000000    -0.346208   
O67      O      0.393650000000     0.974420000000     0.115700000000    -0.362491   
O68      O      0.337920000000     0.980280000000     0.055060000000    -0.355129   
O69      O      0.557260000000     0.979930000000     0.118780000000    -0.357548   
O70      O      0.614930000000     0.981770000000     0.058400000000    -0.345935   
O71      O      0.395720000000     0.113910000000     0.973090000000    -0.356175   
O72      O      0.339170000000     0.053850000000     0.976870000000    -0.35303    
O73      O      0.473610000000     0.135710000000     0.044120000000    -0.338115   
O74      O      0.479050000000     0.147800000000     0.921130000000    -0.512795   
O75      O      0.471230000000     0.051230000000     0.132710000000    -0.514386   
O76      O      0.476550000000     0.930110000000     0.156540000000    -0.324136   
O77      O      0.525050000000     0.035100000000     0.035560000000    -0.471772   
O78      O      0.428020000000     0.035010000000     0.034090000000    -0.60825    
O79      O      0.397660000000     0.984810000000     0.845930000000    -0.336704   
O80      O      0.340000000000     0.978300000000     0.905930000000    -0.349318   
O81      O      0.559350000000     0.843330000000     0.991070000000    -0.368276   
O82      O      0.615880000000     0.903400000000     0.987130000000    -0.344853   
O83      O      0.395430000000     0.843910000000     0.996910000000    -0.349375   
O84      O      0.339150000000     0.904290000000     0.983590000000    -0.34901    
O85      O      0.561390000000     0.976950000000     0.848010000000    -0.36394    
O86      O      0.617000000000     0.973150000000     0.908940000000    -0.337685   
O87      O      0.478240000000     0.906180000000     0.831820000000    -0.51328    
O88      O      0.483090000000     0.026970000000     0.807690000000    -0.304348   
O89      O      0.475980000000     0.823110000000     0.919370000000    -0.340578   
O90      O      0.478930000000     0.807890000000     0.041510000000    -0.510768   
O91      O      0.430310000000     0.922320000000     0.928990000000    -0.612799   
O92      O      0.527190000000     0.922060000000     0.930250000000    -0.46437    
O93      O      0.426400000000     0.033710000000     0.923760000000    -0.470067   
O94      O      0.528080000000     0.924090000000     0.040490000000    -0.624763   
O95      O      0.530000000000     0.032360000000     0.924780000000    -0.62512    
O96      O      0.424600000000     0.924900000000     0.040000000000    -0.473861   
O97      O      0.886630000000     0.661820000000     0.076560000000    -0.0993079  
O98      O      0.897990000000     0.733920000000     0.039260000000    -0.0891139  
O99      O      0.902030000000     0.221290000000     0.942730000000    -0.11219    
O100     O      0.913600000000     0.249380000000     0.017750000000    -0.0956696  
O101     O      0.072420000000     0.729560000000     0.929170000000    -0.0994034  
O102     O      0.027850000000     0.715370000000     0.995740000000    -0.0468102  
O103     O      0.152210000000     0.381150000000     0.878120000000    -0.0860025  
O104     O      0.227240000000     0.385950000000     0.908240000000    -0.109604   
O105     O      0.737020000000     0.926140000000     0.903590000000    -0.109981   
O106     O      0.667350000000     0.887380000000     0.890240000000    -0.099871   
O107     O      0.378890000000     0.069780000000     0.797510000000    -0.0960855  
O108     O      0.388190000000     0.030570000000     0.726910000000    -0.0998061  
O109     O      0.154050000000     0.069410000000     0.375040000000    -0.103396   
O110     O      0.227260000000     0.033940000000     0.383830000000    -0.111883   
O111     O      0.899280000000     0.940840000000     0.221440000000    -0.107089   
O112     O      0.888010000000     0.895450000000     0.288920000000    -0.105113   
O113     O      0.026570000000     0.392720000000     0.725500000000    -0.0950139  
O114     O      0.068560000000     0.382510000000     0.794310000000    -0.0794516  
O115     O      0.067360000000     0.584910000000     0.804490000000    -0.103474   
O116     O      0.030490000000     0.576850000000     0.732840000000    -0.093614   
O117     O      0.079520000000     0.724590000000     0.080860000000    -0.108179   
O118     O      0.015050000000     0.696390000000     0.040580000000    -0.0419545  
O119     O      0.035300000000     0.226260000000     0.382110000000    -0.0974038  
O120     O      0.070320000000     0.152610000000     0.373860000000    -0.0991104  
Zr1      Zr     0.877660000000     0.977120000000     0.482410000000     1.29626    
Zr2      Zr     0.978540000000     0.079210000000     0.479600000000     1.30497    
Zr3      Zr     0.977430000000     0.877810000000     0.483860000000     1.29738    
Zr4      Zr     0.078410000000     0.979800000000     0.481000000000     1.30645    
Zr5      Zr     0.977760000000     0.976960000000     0.390250000000     1.27714    
Zr6      Zr     0.978360000000     0.980140000000     0.573180000000     1.26506    
Zr7      Zr     0.982870000000     0.476710000000     0.082390000000     1.29523    
Zr8      Zr     0.878090000000     0.478560000000     0.983500000000     1.29308    
Zr9      Zr     0.079490000000     0.479140000000     0.980320000000     1.30091    
Zr10     Zr     0.974680000000     0.481290000000     0.881080000000     1.30428    
Zr11     Zr     0.979410000000     0.387690000000     0.980060000000     1.2773     
Zr12     Zr     0.977960000000     0.569750000000     0.983200000000     1.28437    
Zr13     Zr     0.477470000000     0.079230000000     0.976590000000     1.29905    
Zr14     Zr     0.475870000000     0.979860000000     0.082700000000     1.29777    
Zr15     Zr     0.479090000000     0.977640000000     0.881710000000     1.30188    
Zr16     Zr     0.477410000000     0.878080000000     0.988100000000     1.29496    
Zr17     Zr     0.568980000000     0.978270000000     0.983300000000     1.27218    
Zr18     Zr     0.386160000000     0.979000000000     0.981030000000     1.26515    


