data_structure

_audit_creation_method RASPA-1.0
_audit_creation_date 2023-6-5
_audit_author_name 'Poobodin Mano'

_cell_length_a    21.421
_cell_length_b    21.3833
_cell_length_c    21.4184
_cell_angle_alpha 89.2564
_cell_angle_beta  89.2563
_cell_angle_gamma 89.2563
_cell_volume      9808.28

_symmetry_cell_setting          triclinic
_symmetry_space_group_name_Hall 'P 1'
_symmetry_space_group_name_H-M  'P 1'
_symmetry_Int_Tables_number     1

_symmetry_equiv_pos_as_xyz 'x,y,z'

loop_
_atom_site_label
_atom_site_type_symbol
_atom_site_fract_x
_atom_site_fract_y
_atom_site_fract_z
_atom_site_charge
C1       C      0.819590000000     0.967150000000     0.315370000000     0.378285   
C2       C      0.970250000000     0.131970000000     0.637680000000     0.373803   
C3       C      0.959130000000     0.128580000000     0.312460000000     0.392729   
C4       C      0.823990000000     0.971170000000     0.641500000000     0.383939   
C5       C      0.988920000000     0.822890000000     0.640330000000     0.389385   
C6       C      0.127210000000     0.979390000000     0.311310000000     0.385978   
C7       C      0.131940000000     0.984180000000     0.636180000000     0.375391   
C8       C      0.987380000000     0.821410000000     0.314330000000     0.374109   
C9       C      0.975330000000     0.312240000000     0.129690000000     0.386956   
C10      C      0.824360000000     0.641730000000     0.989710000000     0.390998   
C11      C      0.819790000000     0.316120000000     0.985130000000     0.371114   
C12      C      0.994570000000     0.637840000000     0.131870000000     0.379514   
C13      C      0.131720000000     0.638330000000     0.966940000000     0.380802   
C14      C      0.964820000000     0.314530000000     0.822320000000     0.378762   
C15      C      0.973490000000     0.640870000000     0.824400000000     0.382847   
C16      C      0.127880000000     0.311800000000     0.960680000000     0.385953   
C17      C      0.637060000000     0.132820000000     0.973660000000     0.379377   
C18      C      0.310110000000     0.969730000000     0.127110000000     0.392395   
C19      C      0.635300000000     0.977180000000     0.133050000000     0.371669   
C20      C      0.311450000000     0.129480000000     0.956900000000     0.393101   
C21      C      0.315140000000     0.974270000000     0.819300000000     0.379305   
C22      C      0.640040000000     0.824700000000     0.978890000000     0.384945   
C23      C      0.314950000000     0.821040000000     0.978420000000     0.374014   
C24      C      0.640820000000     0.983150000000     0.824090000000     0.386274   
C25      C      0.673190000000     0.718880000000     0.974080000000     0.0230658  
C26      C      0.746600000000     0.796660000000     0.995220000000    -0.0197992  
C27      C      0.719470000000     0.673430000000     0.978810000000     0.0285317  
C28      C      0.793050000000     0.750560000000     0.004450000000     0.148589   
C29      C      0.713150000000     0.284500000000     0.988840000000     0.0200275  
C30      C      0.792090000000     0.208830000000     0.973470000000    -0.0172237  
C31      C      0.667890000000     0.238340000000     0.984160000000     0.0279174  
C32      C      0.746790000000     0.162660000000     0.963810000000     0.142755   
C33      C      0.283240000000     0.714300000000     0.981720000000     0.0235328  
C34      C      0.208000000000     0.793380000000     0.964950000000    -0.0181001  
C35      C      0.237170000000     0.669020000000     0.976890000000     0.0277551  
C36      C      0.161970000000     0.747970000000     0.955110000000     0.143602   
C37      C      0.158280000000     0.204570000000     0.969340000000     0.0252083  
C38      C      0.230020000000     0.278980000000     0.931260000000    -0.014006   
C39      C      0.204850000000     0.158570000000     0.967140000000     0.0328185  
C40      C      0.275630000000     0.232140000000     0.924220000000     0.147239   
C41      C      0.793670000000     0.964950000000     0.748900000000     0.0234792  
C42      C      0.720710000000     0.996400000000     0.672820000000    -0.0221421  
C43      C      0.747300000000     0.969730000000     0.795010000000     0.0289821  
C44      C      0.675850000000     0.007250000000     0.719360000000     0.148178   
C45      C      0.237840000000     0.993850000000     0.668260000000     0.0235423  
C46      C      0.161050000000     0.965720000000     0.742330000000    -0.0148225  
C47      C      0.283410000000     0.989720000000     0.714340000000     0.0262121  
C48      C      0.207230000000     0.956900000000     0.788180000000     0.145052   
C49      C      0.232780000000     0.985440000000     0.278010000000     0.0227567  
C50      C      0.155490000000     0.962400000000     0.204810000000    -0.0152712  
C51      C      0.278210000000     0.981090000000     0.231750000000     0.0299363  
C52      C      0.201580000000     0.954270000000     0.158180000000     0.14796    
C53      C      0.667120000000     0.979720000000     0.239600000000     0.0213008  
C54      C      0.742680000000     0.964130000000     0.160720000000    -0.0157947  
C55      C      0.713630000000     0.975730000000     0.284740000000     0.0276428  
C56      C      0.789480000000     0.955650000000     0.206100000000     0.139923   
C57      C      0.973700000000     0.238560000000     0.669690000000     0.0220812  
C58      C      0.958520000000     0.159590000000     0.745350000000    -0.0149265  
C59      C      0.971100000000     0.283740000000     0.716280000000     0.0284488  
C60      C      0.951640000000     0.205100000000     0.792390000000     0.14442    
C61      C      0.971870000000     0.748460000000     0.793750000000     0.0213564  
C62      C      0.997580000000     0.670830000000     0.720300000000    -0.0221397  
C63      C      0.977720000000     0.794260000000     0.747160000000     0.0315153  
C64      C      0.009220000000     0.716780000000     0.674850000000     0.151082   
C65      C      0.981460000000     0.791210000000     0.207040000000     0.0221642  
C66      C      0.011160000000     0.716980000000     0.283200000000    -0.0135199  
C67      C      0.984530000000     0.744780000000     0.161370000000     0.0266932  
C68      C      0.019560000000     0.671350000000     0.236890000000     0.144823   
C69      C      0.975840000000     0.279820000000     0.235780000000     0.0229234  
C70      C      0.954490000000     0.206360000000     0.158080000000    -0.015895   
C71      C      0.969230000000     0.233840000000     0.281300000000     0.0278767  
C72      C      0.944200000000     0.160110000000     0.204130000000     0.147936   
H1       H      0.874280000000     0.066750000000     0.565650000000     0.206151   
H2       H      0.064510000000     0.078680000000     0.379720000000     0.203595   
H3       H      0.078620000000     0.885840000000     0.563570000000     0.20642    
H4       H      0.884630000000     0.872800000000     0.385530000000     0.203931   
H5       H      0.074480000000     0.182740000000     0.454360000000     0.124639   
H6       H      0.176910000000     0.105860000000     0.468020000000     0.186972   
H7       H      0.177060000000     0.879570000000     0.438680000000     0.148819   
H8       H      0.111180000000     0.791920000000     0.494210000000     0.192647   
H9       H      0.874470000000     0.770430000000     0.477250000000     0.126788   
H10      H      0.772940000000     0.847680000000     0.475220000000     0.186815   
H11      H      0.777000000000     0.074930000000     0.440400000000     0.149261   
H12      H      0.842580000000     0.162480000000     0.505210000000     0.194579   
H13      H      0.069310000000     0.736860000000     0.459930000000     0.20326    
H14      H      0.721560000000     0.904990000000     0.491650000000     0.205775   
H15      H      0.879270000000     0.213760000000     0.458470000000     0.205496   
H16      H      0.229860000000     0.047590000000     0.466940000000     0.20469    
H17      H      0.888040000000     0.565870000000     0.081030000000     0.208566   
H18      H      0.872220000000     0.386450000000     0.887550000000     0.204947   
H19      H      0.066680000000     0.564730000000     0.874690000000     0.206632   
H20      H      0.078760000000     0.379680000000     0.066090000000     0.205718   
H21      H      0.766690000000     0.477390000000     0.881330000000     0.125777   
H22      H      0.845490000000     0.480520000000     0.777280000000     0.186844   
H23      H      0.072170000000     0.437900000000     0.777480000000     0.148858   
H24      H      0.161640000000     0.497560000000     0.841440000000     0.194641   
H25      H      0.183350000000     0.485510000000     0.075350000000     0.129626   
H26      H      0.106990000000     0.467380000000     0.177900000000     0.184386   
H27      H      0.877760000000     0.446640000000     0.177310000000     0.147959   
H28      H      0.770560000000     0.515880000000     0.098210000000     0.199774   
H29      H      0.216770000000     0.460820000000     0.883220000000     0.204076   
H30      H      0.049060000000     0.461790000000     0.230830000000     0.203212   
H31      H      0.774820000000     0.437720000000     0.100150000000     0.203619   
H32      H      0.902900000000     0.487200000000     0.723910000000     0.205361   
H33      H      0.382310000000     0.073870000000     0.068220000000     0.210891   
H34      H      0.567680000000     0.881060000000     0.075940000000     0.20506    
H35      H      0.390070000000     0.879460000000     0.881180000000     0.209732   
H36      H      0.568490000000     0.074400000000     0.877860000000     0.201438   
H37      H      0.480180000000     0.868210000000     0.182960000000     0.126798   
H38      H      0.481340000000     0.766480000000     0.096370000000     0.186854   
H39      H      0.515560000000     0.784480000000     0.870070000000     0.14962    
H40      H      0.445590000000     0.869730000000     0.764820000000     0.200424   
H41      H      0.473480000000     0.087930000000     0.770930000000     0.123692   
H42      H      0.484700000000     0.194050000000     0.860340000000     0.183147   
H43      H      0.507540000000     0.176950000000     0.077740000000     0.147597   
H44      H      0.425580000000     0.079480000000     0.188770000000     0.199867   
H45      H      0.523500000000     0.869590000000     0.769210000000     0.205788   
H46      H      0.474240000000     0.239510000000     0.922770000000     0.203026   
H47      H      0.502260000000     0.091030000000     0.179350000000     0.204452   
H48      H      0.478940000000     0.717760000000     0.035900000000     0.204894   
H49      H      0.705730000000     0.625810000000     0.969590000000     0.0403102  
H50      H      0.626570000000     0.703660000000     0.962940000000     0.0358979  
H51      H      0.758070000000     0.845000000000     0.004160000000     0.0509869  
H52      H      0.878280000000     0.737040000000     0.052490000000     0.107131   
H53      H      0.856470000000     0.815470000000     0.038830000000     0.0854615  
H54      H      0.619670000000     0.253040000000     0.991000000000     0.0323786  
H55      H      0.697110000000     0.331970000000     0.997350000000     0.0381791  
H56      H      0.840840000000     0.195550000000     0.968080000000     0.0453071  
H57      H      0.738070000000     0.076080000000     0.917240000000     0.109744   
H58      H      0.814700000000     0.097120000000     0.934670000000     0.0855403  
H59      H      0.251770000000     0.620770000000     0.984260000000     0.0382173  
H60      H      0.330480000000     0.698180000000     0.990840000000     0.037302   
H61      H      0.194830000000     0.842210000000     0.959270000000     0.0432382  
H62      H      0.076020000000     0.738760000000     0.907860000000     0.110377   
H63      H      0.096920000000     0.815770000000     0.924620000000     0.0853251  
H64      H      0.192820000000     0.112180000000     0.984040000000     0.0399615  
H65      H      0.112430000000     0.191350000000     0.986590000000     0.0405455  
H66      H      0.240730000000     0.325740000000     0.914290000000     0.0464706  
H67      H      0.335290000000     0.290840000000     0.872140000000     0.0843852  
H68      H      0.356290000000     0.210870000000     0.869980000000     0.103337   
H69      H      0.759590000000     0.956220000000     0.842310000000     0.0355849  
H70      H      0.839980000000     0.949560000000     0.762670000000     0.0380017  
H71      H      0.709350000000     0.010080000000     0.625270000000     0.052217   
H72      H      0.616100000000     0.055800000000     0.657860000000     0.0910016  
H73      H      0.597010000000     0.065130000000     0.737540000000     0.0995674  
H74      H      0.330620000000     0.001850000000     0.700400000000     0.0417206  
H75      H      0.252740000000     0.007440000000     0.621500000000     0.0395679  
H76      H      0.113300000000     0.953860000000     0.754620000000     0.0518066  
H77      H      0.221900000000     0.904830000000     0.871640000000     0.10817    
H78      H      0.143340000000     0.916510000000     0.851630000000     0.0863832  
H79      H      0.325600000000     0.991190000000     0.245340000000     0.0341255  
H80      H      0.247890000000     0.997080000000     0.324530000000     0.0344804  
H81      H      0.107390000000     0.952760000000     0.193330000000     0.0531292  
H82      H      0.215600000000     0.907930000000     0.071880000000     0.114384   
H83      H      0.137210000000     0.919650000000     0.094420000000     0.0902966  
H84      H      0.698940000000     0.982730000000     0.332820000000     0.0356463  
H85      H      0.619550000000     0.988150000000     0.255590000000     0.0388907  
H86      H      0.755580000000     0.957360000000     0.112090000000     0.0493536  
H87      H      0.877910000000     0.910770000000     0.216010000000     0.106742   
H88      H      0.855700000000     0.926780000000     0.138840000000     0.0842044  
H89      H      0.978340000000     0.331810000000     0.701480000000     0.0354039  
H90      H      0.981480000000     0.254640000000     0.622040000000     0.041047   
H91      H      0.951480000000     0.110930000000     0.758260000000     0.0513705  
H92      H      0.909200000000     0.215510000000     0.881770000000     0.107754   
H93      H      0.923290000000     0.138000000000     0.859100000000     0.0865019  
H94      H      0.966960000000     0.842170000000     0.759860000000     0.0369234  
H95      H      0.958530000000     0.763100000000     0.840390000000     0.0377338  
H96      H      0.008460000000     0.622600000000     0.708690000000     0.0531117  
H97      H      0.064540000000     0.731530000000     0.593480000000     0.10012    
H98      H      0.051870000000     0.652540000000     0.613630000000     0.0884141  
H99      H      0.971930000000     0.758480000000     0.114260000000     0.0330574  
H100     H      0.967830000000     0.838110000000     0.192530000000     0.0321935  
H101     H      0.024320000000     0.704690000000     0.330610000000     0.0468817  
H102     H      0.073440000000     0.589390000000     0.219870000000     0.104437   
H103     H      0.064290000000     0.609000000000     0.298990000000     0.0853354  
H104     H      0.977660000000     0.247630000000     0.328990000000     0.0354164  
H105     H      0.987400000000     0.326370000000     0.251060000000     0.0341352  
H106     H      0.946190000000     0.194730000000     0.109740000000     0.0525947  
H107     H      0.896320000000     0.074620000000     0.217690000000     0.11697    
H108     H      0.910070000000     0.096460000000     0.139290000000     0.0911667  
N1       N      0.686730000000     0.780500000000     0.981610000000    -0.166521   
N2       N      0.779870000000     0.688650000000     0.992150000000    -0.193323   
N3       N      0.847320000000     0.768290000000     0.031200000000    -0.211638   
N4       N      0.775380000000     0.269940000000     0.983620000000    -0.163673   
N5       N      0.683910000000     0.177000000000     0.972960000000    -0.189359   
N6       N      0.767010000000     0.107190000000     0.939600000000    -0.210962   
N7       N      0.268840000000     0.776620000000     0.976060000000    -0.164145   
N8       N      0.176040000000     0.685070000000     0.965140000000    -0.18832    
N9       N      0.106880000000     0.768030000000     0.930160000000    -0.210832   
N10      N      0.171790000000     0.265220000000     0.954130000000    -0.165705   
N11      N      0.264470000000     0.172940000000     0.948180000000    -0.191647   
N12      N      0.327170000000     0.245440000000     0.888740000000    -0.210261   
N13      N      0.779570000000     0.976200000000     0.687660000000    -0.165281   
N14      N      0.687620000000     0.987870000000     0.779940000000    -0.194749   
N15      N      0.624760000000     0.042650000000     0.704160000000    -0.209327   
N16      N      0.176490000000     0.982360000000     0.682190000000    -0.162433   
N17      N      0.268690000000     0.972760000000     0.774830000000    -0.188015   
N18      N      0.190110000000     0.926700000000     0.842000000000    -0.211011   
N19      N      0.171390000000     0.976670000000     0.264610000000    -0.166399   
N20      N      0.263180000000     0.967290000000     0.171420000000    -0.19271    
N21      N      0.184200000000     0.927910000000     0.103550000000    -0.211882   
N22      N      0.681510000000     0.974610000000     0.177440000000    -0.162867   
N23      N      0.775240000000     0.965310000000     0.268750000000    -0.189167   
N24      N      0.845710000000     0.932110000000     0.186390000000    -0.211863   
N25      N      0.968200000000     0.176310000000     0.684070000000    -0.162027   
N26      N      0.961760000000     0.267780000000     0.778060000000    -0.188305   
N27      N      0.929160000000     0.185560000000     0.849070000000    -0.21104    
N28      N      0.979690000000     0.686690000000     0.779630000000    -0.165155   
N29      N      0.993350000000     0.778360000000     0.686990000000    -0.193382   
N30      N      0.041580000000     0.699550000000     0.622480000000    -0.210083   
N31      N      0.992680000000     0.776870000000     0.268390000000    -0.164514   
N32      N      0.000620000000     0.683980000000     0.176280000000    -0.186538   
N33      N      0.051970000000     0.618330000000     0.252700000000    -0.209591   
N34      N      0.969590000000     0.266010000000     0.174120000000    -0.166855   
N35      N      0.956010000000     0.173370000000     0.265960000000    -0.193225   
N36      N      0.917420000000     0.105750000000     0.186420000000    -0.212013   
O1       O      0.800610000000     0.964150000000     0.373250000000    -0.360183   
O2       O      0.877700000000     0.973840000000     0.299800000000    -0.356083   
O3       O      0.971350000000     0.151320000000     0.579960000000    -0.350571   
O4       O      0.970270000000     0.073180000000     0.653690000000    -0.345522   
O5       O      0.958710000000     0.147450000000     0.369710000000    -0.366194   
O6       O      0.966690000000     0.070780000000     0.297170000000    -0.357833   
O7       O      0.804900000000     0.969770000000     0.584390000000    -0.359148   
O8       O      0.882160000000     0.971040000000     0.656950000000    -0.353231   
O9       O      0.767190000000     0.048800000000     0.477650000000    -0.342346   
O10      O      0.763880000000     0.891350000000     0.482720000000    -0.513877   
O11      O      0.878830000000     0.174100000000     0.480600000000    -0.511632   
O12      O      0.032960000000     0.198430000000     0.468260000000    -0.330213   
O13      O      0.899940000000     0.042750000000     0.414570000000    -0.467032   
O14      O      0.901090000000     0.042130000000     0.538640000000    -0.610572   
O15      O      0.985030000000     0.804000000000     0.583370000000    -0.358974   
O16      O      0.986220000000     0.881180000000     0.655730000000    -0.354733   
O17      O      0.146440000000     0.984330000000     0.368100000000    -0.367752   
O18      O      0.069080000000     0.975680000000     0.296520000000    -0.352845   
O19      O      0.150630000000     0.989600000000     0.578480000000    -0.350297   
O20      O      0.073730000000     0.978360000000     0.652480000000    -0.345653   
O21      O      0.989550000000     0.802610000000     0.372170000000    -0.355587   
O22      O      0.980580000000     0.879700000000     0.297960000000    -0.350925   
O23      O      0.072330000000     0.778410000000     0.476750000000    -0.512018   
O24      O      0.917860000000     0.754000000000     0.478770000000    -0.329902   
O25      O      0.183760000000     0.904110000000     0.476840000000    -0.343464   
O26      O      0.186830000000     0.061650000000     0.468660000000    -0.513661   
O27      O      0.050860000000     0.910070000000     0.537240000000    -0.611189   
O28      O      0.050400000000     0.910090000000     0.413640000000    -0.465451   
O29      O      0.909280000000     0.900380000000     0.545450000000    -0.471538   
O30      O      0.041080000000     0.051700000000     0.407670000000    -0.619185   
O31      O      0.908350000000     0.899970000000     0.411720000000    -0.62656    
O32      O      0.042950000000     0.052670000000     0.541850000000    -0.47363    
O33      O      0.981060000000     0.369130000000     0.148610000000    -0.367023   
O34      O      0.973180000000     0.297000000000     0.071580000000    -0.35486    
O35      O      0.805110000000     0.584540000000     0.989670000000    -0.365805   
O36      O      0.882450000000     0.656490000000     0.984530000000    -0.358506   
O37      O      0.800780000000     0.373980000000     0.987440000000    -0.357896   
O38      O      0.878330000000     0.299890000000     0.981580000000    -0.350628   
O39      O      0.994370000000     0.579890000000     0.150440000000    -0.352887   
O40      O      0.986830000000     0.654420000000     0.073900000000    -0.348644   
O41      O      0.906210000000     0.481480000000     0.186100000000    -0.337342   
O42      O      0.062900000000     0.466330000000     0.187900000000    -0.51647    
O43      O      0.784950000000     0.477080000000     0.080030000000    -0.513738   
O44      O      0.752230000000     0.482420000000     0.925090000000    -0.327642   
O45      O      0.910710000000     0.414180000000     0.053090000000    -0.467699   
O46      O      0.911440000000     0.538900000000     0.053180000000    -0.610443   
O47      O      0.150940000000     0.580380000000     0.966300000000    -0.355702   
O48      O      0.073370000000     0.653900000000     0.972040000000    -0.34979    
O49      O      0.961770000000     0.372490000000     0.803270000000    -0.360553   
O50      O      0.972550000000     0.299040000000     0.880360000000    -0.349764   
O51      O      0.970500000000     0.583650000000     0.805730000000    -0.35894    
O52      O      0.973920000000     0.656640000000     0.882520000000    -0.355098   
O53      O      0.146940000000     0.369010000000     0.958020000000    -0.359218   
O54      O      0.070220000000     0.296410000000     0.969610000000    -0.353007   
O55      O      0.175090000000     0.478330000000     0.880140000000    -0.510106   
O56      O      0.197620000000     0.468810000000     0.034620000000    -0.334878   
O57      O      0.046690000000     0.475730000000     0.768030000000    -0.342485   
O58      O      0.889440000000     0.482960000000     0.766980000000    -0.514207   
O59      O      0.042030000000     0.538190000000     0.901960000000    -0.611026   
O60      O      0.041970000000     0.414010000000     0.901390000000    -0.466614   
O61      O      0.053700000000     0.541790000000     0.043670000000    -0.477664   
O62      O      0.899560000000     0.412340000000     0.911370000000    -0.626916   
O63      O      0.051990000000     0.407770000000     0.042580000000    -0.61875    
O64      O      0.900510000000     0.545830000000     0.911620000000    -0.471765   
O65      O      0.579370000000     0.152220000000     0.970180000000    -0.362917   
O66      O      0.652220000000     0.074350000000     0.979760000000    -0.351448   
O67      O      0.367170000000     0.967540000000     0.146520000000    -0.362807   
O68      O      0.295570000000     0.977170000000     0.069140000000    -0.359559   
O69      O      0.577410000000     0.977550000000     0.151990000000    -0.355555   
O70      O      0.651700000000     0.977330000000     0.074520000000    -0.345873   
O71      O      0.368390000000     0.149040000000     0.958320000000    -0.357107   
O72      O      0.296270000000     0.071620000000     0.965570000000    -0.35231    
O73      O      0.464860000000     0.175350000000     0.060680000000    -0.340831   
O74      O      0.478480000000     0.198410000000     0.904840000000    -0.512743   
O75      O      0.465430000000     0.067100000000     0.170880000000    -0.51258    
O76      O      0.474490000000     0.911270000000     0.198720000000    -0.324732   
O77      O      0.535820000000     0.049390000000     0.045920000000    -0.468257   
O78      O      0.410630000000     0.048190000000     0.043800000000    -0.605611   
O79      O      0.372990000000     0.976490000000     0.800280000000    -0.356436   
O80      O      0.299230000000     0.975460000000     0.877770000000    -0.34883    
O81      O      0.583010000000     0.805320000000     0.978440000000    -0.367687   
O82      O      0.655120000000     0.883040000000     0.978930000000    -0.356312   
O83      O      0.372520000000     0.801890000000     0.982820000000    -0.351166   
O84      O      0.299000000000     0.879660000000     0.974150000000    -0.356423   
O85      O      0.583920000000     0.980890000000     0.804720000000    -0.365864   
O86      O      0.655810000000     0.980020000000     0.882430000000    -0.359529   
O87      O      0.483420000000     0.887920000000     0.780120000000    -0.513986   
O88      O      0.475700000000     0.044960000000     0.754280000000    -0.329241   
O89      O      0.477060000000     0.775250000000     0.894350000000    -0.339816   
O90      O      0.479530000000     0.759790000000     0.051910000000    -0.513218   
O91      O      0.415880000000     0.905580000000     0.906420000000    -0.614269   
O92      O      0.540610000000     0.906390000000     0.907830000000    -0.466536   
O93      O      0.409410000000     0.048320000000     0.901930000000    -0.475509   
O94      O      0.541100000000     0.906570000000     0.049550000000    -0.62336    
O95      O      0.541850000000     0.048260000000     0.903570000000    -0.62209    
O96      O      0.408130000000     0.906060000000     0.048700000000    -0.473708   
Zr1      Zr     0.846780000000     0.966390000000     0.478180000000     1.29163    
Zr2      Zr     0.968870000000     0.105400000000     0.475400000000     1.29329    
Zr3      Zr     0.982150000000     0.847010000000     0.477390000000     1.29285    
Zr4      Zr     0.104130000000     0.986420000000     0.474220000000     1.29317    
Zr5      Zr     0.974260000000     0.975680000000     0.358730000000     1.26418    
Zr6      Zr     0.976700000000     0.976360000000     0.594000000000     1.25978    
Zr7      Zr     0.987440000000     0.474980000000     0.105730000000     1.29367    
Zr8      Zr     0.847550000000     0.478480000000     0.985670000000     1.29447    
Zr9      Zr     0.105480000000     0.474960000000     0.969430000000     1.293      
Zr10     Zr     0.965560000000     0.477890000000     0.848760000000     1.29284    
Zr11     Zr     0.975370000000     0.358790000000     0.976570000000     1.26434    
Zr12     Zr     0.977380000000     0.594410000000     0.977870000000     1.25914    
Zr13     Zr     0.473980000000     0.106660000000     0.971110000000     1.29005    
Zr14     Zr     0.473020000000     0.976730000000     0.104950000000     1.29365    
Zr15     Zr     0.477750000000     0.977830000000     0.846820000000     1.29446    
Zr16     Zr     0.477030000000     0.848060000000     0.980900000000     1.29583    
Zr17     Zr     0.593020000000     0.978080000000     0.977520000000     1.26395    
Zr18     Zr     0.358080000000     0.976600000000     0.974270000000     1.2603     


