data_structure

_audit_creation_method RASPA-1.0
_audit_creation_date 2023-6-5
_audit_author_name 'Poobodin Mano'

_cell_length_a    21.2956
_cell_length_b    21.4
_cell_length_c    21.3807
_cell_angle_alpha 89.2564
_cell_angle_beta  89.2563
_cell_angle_gamma 89.2563
_cell_volume      9741.3

_symmetry_cell_setting          triclinic
_symmetry_space_group_name_Hall 'P 1'
_symmetry_space_group_name_H-M  'P 1'
_symmetry_Int_Tables_number     1

_symmetry_equiv_pos_as_xyz 'x,y,z'

loop_
_atom_site_label
_atom_site_type_symbol
_atom_site_fract_x
_atom_site_fract_y
_atom_site_fract_z
_atom_site_charge
C1       C      0.829190000000     0.978480000000     0.310490000000     0.371497   
C2       C      0.979580000000     0.132880000000     0.633120000000     0.373762   
C3       C      0.996840000000     0.126240000000     0.307980000000     0.375031   
C4       C      0.824720000000     0.979550000000     0.637820000000     0.384075   
C5       C      0.967090000000     0.825310000000     0.641650000000     0.382362   
C6       C      0.137340000000     0.948980000000     0.314730000000     0.384526   
C7       C      0.130990000000     0.971590000000     0.642170000000     0.377223   
C8       C      0.979310000000     0.818020000000     0.317280000000     0.377245   
C9       C      0.969850000000     0.305820000000     0.127910000000     0.383594   
C10      C      0.826700000000     0.639850000000     0.986830000000     0.378067   
C11      C      0.821210000000     0.315400000000     0.973040000000     0.374576   
C12      C      0.986430000000     0.631590000000     0.133760000000     0.378497   
C13      C      0.135420000000     0.634480000000     0.980060000000     0.376899   
C14      C      0.976230000000     0.314100000000     0.820720000000     0.377593   
C15      C      0.966080000000     0.639580000000     0.827510000000     0.383877   
C16      C      0.132320000000     0.307760000000     0.964750000000     0.375667   
C17      C      0.640000000000     0.129670000000     0.967790000000     0.375142   
C18      C      0.319340000000     0.973380000000     0.137890000000     0.379717   
C19      C      0.646190000000     0.989920000000     0.128370000000     0.376124   
C20      C      0.312030000000     0.125540000000     0.989000000000     0.379426   
C21      C      0.314680000000     0.968010000000     0.827980000000     0.374432   
C22      C      0.648290000000     0.823690000000     0.963820000000     0.383406   
C23      C      0.321300000000     0.816150000000     0.993290000000     0.373687   
C24      C      0.638500000000     0.987490000000     0.819220000000     0.376977   
C25      C      0.715460000000     0.674960000000     0.996550000000    -0.0159906  
C26      C      0.801750000000     0.753720000000     0.993270000000    -0.0283832  
C27      C      0.680000000000     0.713450000000     0.947620000000    -0.0128112  
C28      C      0.764130000000     0.792730000000     0.945450000000     0.0330353  
C29      C      0.752640000000     0.156480000000     0.956930000000    -0.0118491  
C30      C      0.669630000000     0.234640000000     0.930860000000    -0.0253662  
C31      C      0.791200000000     0.206090000000     0.989060000000    -0.0162102  
C32      C      0.708620000000     0.287830000000     0.957380000000     0.0306103  
C33      C      0.290280000000     0.705280000000     0.008700000000    -0.00902615 
C34      C      0.209550000000     0.790240000000     0.013420000000    -0.0241601  
C35      C      0.246220000000     0.665500000000     0.970260000000    -0.017812   
C36      C      0.162980000000     0.750050000000     0.977400000000     0.0294083  
C37      C      0.160770000000     0.194820000000     0.951120000000    -0.0147739  
C38      C      0.244420000000     0.275590000000     0.960730000000    -0.0304621  
C39      C      0.197870000000     0.151540000000     0.996260000000    -0.015805   
C40      C      0.274100000000     0.236400000000     0.012600000000     0.0370224  
C41      C      0.668840000000     0.003770000000     0.707860000000    -0.00937375 
C42      C      0.748020000000     0.015080000000     0.791430000000    -0.0233161  
C43      C      0.714810000000     0.963660000000     0.670210000000    -0.0155682  
C44      C      0.795710000000     0.976160000000     0.753920000000     0.0300992  
C45      C      0.284250000000     0.949830000000     0.718520000000    -0.0131293  
C46      C      0.203440000000     0.946990000000     0.803840000000    -0.0257784  
C47      C      0.239390000000     0.985690000000     0.676190000000    -0.0154893  
C48      C      0.153630000000     0.974110000000     0.758320000000     0.0305382  
C49      C      0.287030000000     0.976750000000     0.250050000000    -0.0152808  
C50      C      0.205900000000     0.980590000000     0.165660000000    -0.0286381  
C51      C      0.248270000000     0.927380000000     0.285070000000    -0.013866   
C52      C      0.169520000000     0.929610000000     0.200650000000     0.0331667  
C53      C      0.801400000000     0.963690000000     0.198400000000    -0.0176283  
C54      C      0.717250000000     0.978870000000     0.280730000000    -0.0288869  
C55      C      0.759960000000     0.000680000000     0.151390000000    -0.0112285  
C56      C      0.682930000000     0.023290000000     0.236210000000     0.0348982  
C57      C      0.965890000000     0.243590000000     0.663340000000    -0.0133061  
C58      C      0.950730000000     0.157810000000     0.742060000000    -0.0263278  
C59      C      0.997300000000     0.283300000000     0.712290000000    -0.0156514  
C60      C      0.974860000000     0.199780000000     0.794490000000     0.0310852  
C61      C      0.935480000000     0.673630000000     0.721780000000    -0.0114662  
C62      C      0.975400000000     0.751560000000     0.800830000000    -0.027425   
C63      C      0.967300000000     0.714840000000     0.673030000000    -0.0138524  
C64      C      0.949650000000     0.800430000000     0.754060000000     0.0371384  
C65      C      0.971430000000     0.742750000000     0.160110000000    -0.0133317  
C66      C      0.002470000000     0.662430000000     0.243430000000    -0.0212153  
C67      C      0.996410000000     0.789890000000     0.206670000000    -0.0136144  
C68      C      0.969340000000     0.707000000000     0.289110000000     0.0338651  
C69      C      0.011200000000     0.236090000000     0.272570000000    -0.0131882  
C70      C      0.002100000000     0.151220000000     0.193840000000    -0.0235434  
C71      C      0.960250000000     0.273660000000     0.238980000000    -0.0148932  
C72      C      0.952610000000     0.190760000000     0.158970000000     0.0304048  
H1       H      0.887130000000     0.078160000000     0.559960000000     0.210271   
H2       H      0.086690000000     0.063600000000     0.379850000000     0.202629   
H3       H      0.071360000000     0.875490000000     0.568130000000     0.207586   
H4       H      0.881160000000     0.882290000000     0.383950000000     0.203636   
H5       H      0.104450000000     0.171210000000     0.460340000000     0.124761   
H6       H      0.197760000000     0.080450000000     0.482770000000     0.18724    
H7       H      0.168400000000     0.849880000000     0.460990000000     0.144381   
H8       H      0.073720000000     0.755630000000     0.520790000000     0.196573   
H9       H      0.860150000000     0.778860000000     0.466990000000     0.123804   
H10      H      0.759360000000     0.875500000000     0.472190000000     0.184996   
H11      H      0.791650000000     0.093900000000     0.431880000000     0.147585   
H12      H      0.886640000000     0.196840000000     0.503190000000     0.198158   
H13      H      0.079030000000     0.758790000000     0.442690000000     0.200654   
H14      H      0.716190000000     0.941420000000     0.474230000000     0.200497   
H15      H      0.887060000000     0.190760000000     0.425270000000     0.20153    
H16      H      0.241480000000     0.021030000000     0.455290000000     0.201426   
H17      H      0.886750000000     0.560900000000     0.079130000000     0.208959   
H18      H      0.878690000000     0.385550000000     0.881660000000     0.206303   
H19      H      0.073860000000     0.563550000000     0.879010000000     0.209471   
H20      H      0.078500000000     0.374430000000     0.069480000000     0.200115   
H21      H      0.774810000000     0.487970000000     0.871610000000     0.127619   
H22      H      0.861810000000     0.471530000000     0.764460000000     0.185357   
H23      H      0.083110000000     0.441900000000     0.777270000000     0.146117   
H24      H      0.197450000000     0.515530000000     0.872360000000     0.198187   
H25      H      0.186940000000     0.448050000000     0.080590000000     0.123893   
H26      H      0.103470000000     0.457110000000     0.182450000000     0.184298   
H27      H      0.870690000000     0.445710000000     0.172680000000     0.14551    
H28      H      0.766380000000     0.510570000000     0.090160000000     0.196333   
H29      H      0.185280000000     0.439750000000     0.859350000000     0.201814   
H30      H      0.043710000000     0.457110000000     0.234120000000     0.202221   
H31      H      0.770070000000     0.432450000000     0.089480000000     0.201275   
H32      H      0.924310000000     0.480810000000     0.717090000000     0.20071    
H33      H      0.390790000000     0.067920000000     0.076860000000     0.213398   
H34      H      0.579950000000     0.878300000000     0.074930000000     0.201042   
H35      H      0.391950000000     0.875530000000     0.887790000000     0.207769   
H36      H      0.567310000000     0.073230000000     0.878090000000     0.207372   
H37      H      0.498000000000     0.857710000000     0.177810000000     0.123722   
H38      H      0.481990000000     0.761720000000     0.098500000000     0.186949   
H39      H      0.510970000000     0.781920000000     0.868840000000     0.146585   
H40      H      0.444700000000     0.865830000000     0.770560000000     0.1961     
H41      H      0.477080000000     0.085580000000     0.773780000000     0.125219   
H42      H      0.463410000000     0.187530000000     0.862470000000     0.18638    
H43      H      0.522960000000     0.171970000000     0.078070000000     0.146206   
H44      H      0.490570000000     0.096030000000     0.171470000000     0.199314   
H45      H      0.523170000000     0.868830000000     0.770520000000     0.200752   
H46      H      0.475040000000     0.234400000000     0.923230000000     0.201795   
H47      H      0.455700000000     0.048100000000     0.223240000000     0.202991   
H48      H      0.509180000000     0.717090000000     0.040130000000     0.201617   
H49      H      0.695040000000     0.697050000000     0.900510000000     0.0412136  
H50      H      0.703950000000     0.624890000000     0.990850000000     0.0445615  
H51      H      0.779090000000     0.775670000000     0.898540000000     0.0331937  
H52      H      0.852800000000     0.760040000000     0.984100000000     0.0504709  
H53      H      0.629140000000     0.703450000000     0.952700000000     0.0405486  
H54      H      0.698380000000     0.689240000000     0.043690000000     0.036845   
H55      H      0.790990000000     0.771670000000     0.040880000000     0.0445482  
H56      H      0.792760000000     0.896880000000     0.888700000000     0.0358552  
H57      H      0.781650000000     0.202930000000     0.040260000000     0.0413316  
H58      H      0.762180000000     0.110660000000     0.980280000000     0.0439476  
H59      H      0.687810000000     0.301180000000     0.003350000000     0.0327142  
H60      H      0.619080000000     0.247080000000     0.937130000000     0.042719   
H61      H      0.841630000000     0.194080000000     0.981780000000     0.0452395  
H62      H      0.768840000000     0.153080000000     0.907390000000     0.0388493  
H63      H      0.678530000000     0.231340000000     0.879540000000     0.0395864  
H64      H      0.656980000000     0.395460000000     0.930120000000     0.0400278  
H65      H      0.257390000000     0.673590000000     0.919870000000     0.0377967  
H66      H      0.339490000000     0.693640000000     0.994840000000     0.0433735  
H67      H      0.166160000000     0.764690000000     0.927370000000     0.0298616  
H68      H      0.200000000000     0.840300000000     0.002050000000     0.0494817  
H69      H      0.257400000000     0.615660000000     0.980900000000     0.0462109  
H70      H      0.284110000000     0.692210000000     0.058900000000     0.0408521  
H71      H      0.200650000000     0.783790000000     0.064530000000     0.0448044  
H72      H      0.046570000000     0.781430000000     0.955700000000     0.036588   
H73      H      0.176810000000     0.156420000000     0.043850000000     0.0393303  
H74      H      0.109730000000     0.186290000000     0.957700000000     0.0450565  
H75      H      0.247180000000     0.247450000000     0.056170000000     0.0281438  
H76      H      0.253790000000     0.325840000000     0.968530000000     0.0510896  
H77      H      0.191290000000     0.102370000000     0.981860000000     0.0456416  
H78      H      0.173500000000     0.181340000000     0.902490000000     0.0409921  
H79      H      0.266700000000     0.262610000000     0.915280000000     0.0469659  
H80      H      0.365840000000     0.253750000000     0.089140000000     0.0381377  
H81      H      0.705930000000     0.913740000000     0.682010000000     0.038398   
H82      H      0.620310000000     0.988960000000     0.697370000000     0.0428503  
H83      H      0.791110000000     0.927210000000     0.770960000000     0.0310797  
H84      H      0.757110000000     0.008720000000     0.842240000000     0.0487752  
H85      H      0.703860000000     0.970540000000     0.619910000000     0.0432366  
H86      H      0.673750000000     0.053250000000     0.692170000000     0.0390176  
H87      H      0.755010000000     0.065400000000     0.779810000000     0.0415726  
H88      H      0.910370000000     0.951570000000     0.788820000000     0.0355702  
H89      H      0.246410000000     0.036560000000     0.682940000000     0.0439184  
H90      H      0.332900000000     0.963800000000     0.705820000000     0.0454723  
H91      H      0.146530000000     0.024230000000     0.769920000000     0.0342294  
H92      H      0.192560000000     0.964620000000     0.851550000000     0.0479093  
H93      H      0.253050000000     0.975160000000     0.627070000000     0.0463919  
H94      H      0.280110000000     0.899090000000     0.708950000000     0.0378524  
H95      H      0.199460000000     0.895170000000     0.806190000000     0.0427156  
H96      H      0.034380000000     0.978020000000     0.787100000000     0.0378512  
H97      H      0.265200000000     0.880470000000     0.270000000000     0.0404682  
H98      H      0.337540000000     0.968220000000     0.259890000000     0.0417378  
H99      H      0.189630000000     0.884050000000     0.185000000000     0.0315894  
H100     H      0.198310000000     0.976260000000     0.114560000000     0.0506898  
H101     H      0.257570000000     0.930750000000     0.335890000000     0.0411348  
H102     H      0.273980000000     0.023390000000     0.268930000000     0.0361853  
H103     H      0.186930000000     0.026950000000     0.180140000000     0.045634   
H104     H      0.082710000000     0.888620000000     0.127890000000     0.0267313  
H105     H      0.777020000000     0.049580000000     0.149030000000     0.0383196  
H106     H      0.851530000000     0.973700000000     0.187750000000     0.0443451  
H107     H      0.705710000000     0.069530000000     0.240730000000     0.0295746  
H108     H      0.708230000000     0.994180000000     0.329570000000     0.0462028  
H109     H      0.767520000000     0.980320000000     0.104290000000     0.0435881  
H110     H      0.794530000000     0.913010000000     0.190470000000     0.0383263  
H111     H      0.697770000000     0.931190000000     0.276060000000     0.0450034  
H112     H      0.586780000000     0.096740000000     0.255890000000     0.0289839  
H113     H      0.048910000000     0.275170000000     0.708830000000     0.0419193  
H114     H      0.986930000000     0.255260000000     0.616850000000     0.0439202  
H115     H      0.023730000000     0.184520000000     0.805160000000     0.0342782  
H116     H      0.965160000000     0.108920000000     0.753570000000     0.0503865  
H117     H      0.988390000000     0.333170000000     0.699760000000     0.0408856  
H118     H      0.915160000000     0.256480000000     0.661980000000     0.0356934  
H119     H      0.898430000000     0.159190000000     0.742010000000     0.0438077  
H120     H      0.964280000000     0.167070000000     0.912150000000     0.0386613  
H121     H      0.017930000000     0.701770000000     0.669720000000     0.0396276  
H122     H      0.943330000000     0.624200000000     0.708070000000     0.0422872  
H123     H      0.972020000000     0.845770000000     0.764000000000     0.0333465  
H124     H      0.027470000000     0.754810000000     0.801240000000     0.0439038  
H125     H      0.946150000000     0.704760000000     0.627000000000     0.0463869  
H126     H      0.883960000000     0.682400000000     0.720910000000     0.042617   
H127     H      0.958920000000     0.763110000000     0.849000000000     0.0482794  
H128     H      0.840040000000     0.835060000000     0.713330000000     0.0442518  
H129     H      0.048390000000     0.791630000000     0.201720000000     0.0431197  
H130     H      0.990420000000     0.754790000000     0.112890000000     0.0450322  
H131     H      0.987490000000     0.695580000000     0.336510000000     0.0331951  
H132     H      0.054050000000     0.666700000000     0.249100000000     0.0419625  
H133     H      0.977500000000     0.836960000000     0.193890000000     0.0440581  
H134     H      0.919500000000     0.747880000000     0.157650000000     0.0421475  
H135     H      0.990600000000     0.613460000000     0.256490000000     0.0479011  
H136     H      0.860800000000     0.718180000000     0.344210000000     0.0360693  
H137     H      0.913920000000     0.260300000000     0.259360000000     0.0376854  
H138     H      0.009440000000     0.247560000000     0.323090000000     0.0446148  
H139     H      0.906190000000     0.177550000000     0.179280000000     0.0309842  
H140     H      0.992270000000     0.100780000000     0.187710000000     0.0487303  
H141     H      0.966830000000     0.323910000000     0.248990000000     0.0415772  
H142     H      0.057670000000     0.250960000000     0.253720000000     0.0370255  
H143     H      0.049000000000     0.160680000000     0.172490000000     0.0429465  
H144     H      0.900110000000     0.130340000000     0.069200000000     0.0271676  
N1       N      0.695650000000     0.780250000000     0.953580000000    -0.166914   
N2       N      0.783250000000     0.687510000000     0.991110000000    -0.160957   
N3       N      0.775920000000     0.270420000000     0.967440000000    -0.164263   
N4       N      0.685640000000     0.173570000000     0.958470000000    -0.16166    
N5       N      0.179170000000     0.681770000000     0.981480000000    -0.163375   
N6       N      0.275220000000     0.772090000000     0.000460000000    -0.159071   
N7       N      0.264830000000     0.169240000000     0.998370000000    -0.166845   
N8       N      0.176930000000     0.261220000000     0.959280000000    -0.160648   
N9       N      0.780700000000     0.977850000000     0.685600000000    -0.165802   
N10      N      0.683750000000     0.998650000000     0.774660000000    -0.164393   
N11      N      0.173180000000     0.970960000000     0.690850000000    -0.16314    
N12      N      0.268280000000     0.960980000000     0.784590000000    -0.160537   
N13      N      0.181260000000     0.935070000000     0.268960000000    -0.166634   
N14      N      0.272800000000     0.976140000000     0.182630000000    -0.16148    
N15      N      0.692910000000     0.001730000000     0.170830000000    -0.164008   
N16      N      0.784760000000     0.976990000000     0.264350000000    -0.160278   
N17      N      0.976260000000     0.267450000000     0.776710000000    -0.164757   
N18      N      0.972200000000     0.176820000000     0.679070000000    -0.160079   
N19      N      0.961700000000     0.781660000000     0.688640000000    -0.168822   
N20      N      0.958820000000     0.686990000000     0.784730000000    -0.160626   
N21      N      0.980390000000     0.773130000000     0.272050000000    -0.16743    
N22      N      0.987200000000     0.677550000000     0.177800000000    -0.159655   
N23      N      0.961860000000     0.258560000000     0.171630000000    -0.166554   
N24      N      0.003090000000     0.169100000000     0.260220000000    -0.161478   
O1       O      0.809320000000     0.980940000000     0.367980000000    -0.366265   
O2       O      0.888190000000     0.975880000000     0.294810000000    -0.351115   
O3       O      0.986280000000     0.151990000000     0.575610000000    -0.357224   
O4       O      0.976330000000     0.074560000000     0.649400000000    -0.352076   
O5       O      0.997710000000     0.146570000000     0.364730000000    -0.365796   
O6       O      0.991230000000     0.067930000000     0.294010000000    -0.355122   
O7       O      0.805390000000     0.979020000000     0.580440000000    -0.354593   
O8       O      0.883080000000     0.980070000000     0.652070000000    -0.354957   
O9       O      0.785970000000     0.075270000000     0.474170000000    -0.343784   
O10      O      0.756720000000     0.920580000000     0.473430000000    -0.512339   
O11      O      0.904340000000     0.179170000000     0.465410000000    -0.511793   
O12      O      0.063330000000     0.190820000000     0.470780000000    -0.32836    
O13      O      0.915080000000     0.049280000000     0.409780000000    -0.467194   
O14      O      0.912690000000     0.050990000000     0.534050000000    -0.609456   
O15      O      0.968260000000     0.805280000000     0.584840000000    -0.365917   
O16      O      0.970240000000     0.883640000000     0.656180000000    -0.352509   
O17      O      0.155880000000     0.950810000000     0.372240000000    -0.362655   
O18      O      0.079990000000     0.958950000000     0.298760000000    -0.350995   
O19      O      0.152720000000     0.970080000000     0.585030000000    -0.350335   
O20      O      0.071870000000     0.974970000000     0.655340000000    -0.353672   
O21      O      0.972820000000     0.799830000000     0.374960000000    -0.366159   
O22      O      0.984920000000     0.875930000000     0.300080000000    -0.349273   
O23      O      0.058990000000     0.772000000000     0.481210000000    -0.514756   
O24      O      0.900520000000     0.760070000000     0.480630000000    -0.32961    
O25      O      0.185580000000     0.882980000000     0.487530000000    -0.336787   
O26      O      0.201620000000     0.037290000000     0.470370000000    -0.519314   
O27      O      0.047610000000     0.902060000000     0.539960000000    -0.611477   
O28      O      0.050400000000     0.900310000000     0.415930000000    -0.466169   
O29      O      0.904500000000     0.908970000000     0.543120000000    -0.47505    
O30      O      0.058450000000     0.041080000000     0.407480000000    -0.61794    
O31      O      0.907360000000     0.907120000000     0.410260000000    -0.624208   
O32      O      0.055860000000     0.044690000000     0.541240000000    -0.474976   
O33      O      0.973810000000     0.362530000000     0.148000000000    -0.364836   
O34      O      0.972530000000     0.292210000000     0.069460000000    -0.354923   
O35      O      0.806380000000     0.583110000000     0.985040000000    -0.360754   
O36      O      0.885540000000     0.653920000000     0.985340000000    -0.353001   
O37      O      0.802990000000     0.373180000000     0.975940000000    -0.36212    
O38      O      0.879790000000     0.298010000000     0.974440000000    -0.34782    
O39      O      0.991740000000     0.573890000000     0.152500000000    -0.351929   
O40      O      0.979870000000     0.648360000000     0.075880000000    -0.352601   
O41      O      0.902290000000     0.476310000000     0.185690000000    -0.339675   
O42      O      0.058900000000     0.459250000000     0.191370000000    -0.51511    
O43      O      0.781590000000     0.472350000000     0.071360000000    -0.514777   
O44      O      0.757580000000     0.486690000000     0.914840000000    -0.330257   
O45      O      0.909890000000     0.410670000000     0.049890000000    -0.467386   
O46      O      0.911510000000     0.534380000000     0.051850000000    -0.61131    
O47      O      0.155310000000     0.576760000000     0.981110000000    -0.354537   
O48      O      0.076720000000     0.649410000000     0.976730000000    -0.352878   
O49      O      0.974130000000     0.371900000000     0.801510000000    -0.364076   
O50      O      0.979340000000     0.298210000000     0.879020000000    -0.351639   
O51      O      0.960700000000     0.582900000000     0.808090000000    -0.357808   
O52      O      0.977400000000     0.653850000000     0.884790000000    -0.356181   
O53      O      0.151730000000     0.364790000000     0.967420000000    -0.363185   
O54      O      0.073670000000     0.292660000000     0.967160000000    -0.350209   
O55      O      0.177880000000     0.476570000000     0.884220000000    -0.513099   
O56      O      0.202680000000     0.463970000000     0.039700000000    -0.328789   
O57      O      0.063320000000     0.484020000000     0.776410000000    -0.344328   
O58      O      0.906580000000     0.476270000000     0.758710000000    -0.511244   
O59      O      0.048900000000     0.536020000000     0.905140000000    -0.607684   
O60      O      0.048240000000     0.411780000000     0.903610000000    -0.466944   
O61      O      0.054330000000     0.537140000000     0.048010000000    -0.472458   
O62      O      0.904940000000     0.410800000000     0.907510000000    -0.624027   
O63      O      0.052890000000     0.403160000000     0.045250000000    -0.61899    
O64      O      0.906070000000     0.543650000000     0.909350000000    -0.474747   
O65      O      0.581710000000     0.148200000000     0.967000000000    -0.366874   
O66      O      0.657350000000     0.071830000000     0.973470000000    -0.35056    
O67      O      0.377120000000     0.971110000000     0.156130000000    -0.35934    
O68      O      0.303010000000     0.974030000000     0.079880000000    -0.353225   
O69      O      0.588910000000     0.985560000000     0.148530000000    -0.353203   
O70      O      0.661600000000     0.984650000000     0.069810000000    -0.349705   
O71      O      0.368990000000     0.144820000000     0.982890000000    -0.355401   
O72      O      0.297390000000     0.066980000000     0.988090000000    -0.350682   
O73      O      0.479030000000     0.173760000000     0.063510000000    -0.346662   
O74      O      0.470310000000     0.192960000000     0.906640000000    -0.514496   
O75      O      0.474510000000     0.055270000000     0.182440000000    -0.510325   
O76      O      0.490370000000     0.899000000000     0.197050000000    -0.335228   
O77      O      0.541650000000     0.045560000000     0.047200000000    -0.467627   
O78      O      0.417490000000     0.042590000000     0.050230000000    -0.608689   
O79      O      0.371870000000     0.972310000000     0.807420000000    -0.362197   
O80      O      0.299500000000     0.967470000000     0.886970000000    -0.352902   
O81      O      0.591250000000     0.803570000000     0.968510000000    -0.366321   
O82      O      0.662070000000     0.881980000000     0.967460000000    -0.35579    
O83      O      0.379450000000     0.797270000000     0.992140000000    -0.35079    
O84      O      0.304300000000     0.874400000000     0.989440000000    -0.351634   
O85      O      0.580910000000     0.984500000000     0.801130000000    -0.365986   
O86      O      0.655360000000     0.983720000000     0.877120000000    -0.352994   
O87      O      0.482820000000     0.885560000000     0.783690000000    -0.514263   
O88      O      0.471690000000     0.042850000000     0.757630000000    -0.325859   
O89      O      0.477350000000     0.769800000000     0.898850000000    -0.339872   
O90      O      0.493770000000     0.756950000000     0.055010000000    -0.516751   
O91      O      0.418550000000     0.902010000000     0.911990000000    -0.611253   
O92      O      0.543680000000     0.904360000000     0.907960000000    -0.46709    
O93      O      0.408790000000     0.044950000000     0.907990000000    -0.475531   
O94      O      0.550960000000     0.903010000000     0.050160000000    -0.621717   
O95      O      0.542560000000     0.046270000000     0.904990000000    -0.623792   
O96      O      0.415850000000     0.900960000000     0.054040000000    -0.473965   
S1       S      0.788500000000     0.872720000000     0.948230000000    -0.0293969  
S2       S      0.697980000000     0.352940000000     0.904170000000    -0.036522   
S3       S      0.085800000000     0.772110000000     0.005390000000    -0.0256928  
S4       S      0.352540000000     0.262110000000     0.027040000000    -0.0275367  
S5       S      0.872380000000     0.002080000000     0.775780000000    -0.0282198  
S6       S      0.081400000000     0.934810000000     0.777190000000    -0.0321352  
S7       S      0.089320000000     0.930120000000     0.175580000000    -0.0207548  
S8       S      0.603560000000     0.035100000000     0.263460000000    -0.027636   
S9       S      0.926850000000     0.182650000000     0.862510000000    -0.0318005  
S10      S      0.867050000000     0.811180000000     0.766510000000    -0.045278   
S11      S      0.886790000000     0.692850000000     0.291180000000    -0.0378018  
S12      S      0.951060000000     0.167390000000     0.078580000000    -0.0246802  
Zr1      Zr     0.851360000000     0.981020000000     0.474090000000     1.28958    
Zr2      Zr     0.989970000000     0.104570000000     0.471370000000     1.28927    
Zr3      Zr     0.973360000000     0.846770000000     0.478540000000     1.29691    
Zr4      Zr     0.111740000000     0.970220000000     0.477220000000     1.28717    
Zr5      Zr     0.983590000000     0.973320000000     0.357570000000     1.26239    
Zr6      Zr     0.978910000000     0.977540000000     0.591990000000     1.26644    
Zr7      Zr     0.985590000000     0.469390000000     0.106870000000     1.2899     
Zr8      Zr     0.849640000000     0.476550000000     0.980440000000     1.29546    
Zr9      Zr     0.109660000000     0.471390000000     0.974960000000     1.28784    
Zr10     Zr     0.974000000000     0.476610000000     0.848320000000     1.29116    
Zr11     Zr     0.978130000000     0.355950000000     0.975490000000     1.26307    
Zr12     Zr     0.980450000000     0.590460000000     0.979350000000     1.26389    
Zr13     Zr     0.476160000000     0.102990000000     0.975320000000     1.29421    
Zr14     Zr     0.482520000000     0.971300000000     0.108630000000     1.29361    
Zr15     Zr     0.477360000000     0.975670000000     0.850140000000     1.29553    
Zr16     Zr     0.484000000000     0.844390000000     0.983520000000     1.28765    
Zr17     Zr     0.598190000000     0.976100000000     0.975950000000     1.26396    
Zr18     Zr     0.361640000000     0.971930000000     0.982330000000     1.25779    


