data_structure

_audit_creation_method RASPA-1.0
_audit_creation_date 2023-6-5
_audit_author_name 'Poobodin Mano'

_cell_length_a    21.2744
_cell_length_b    21.2952
_cell_length_c    21.1223
_cell_angle_alpha 89.2564
_cell_angle_beta  89.2563
_cell_angle_gamma 89.2563
_cell_volume      9566.9

_symmetry_cell_setting          triclinic
_symmetry_space_group_name_Hall 'P 1'
_symmetry_space_group_name_H-M  'P 1'
_symmetry_Int_Tables_number     1

_symmetry_equiv_pos_as_xyz 'x,y,z'

loop_
_atom_site_label
_atom_site_type_symbol
_atom_site_fract_x
_atom_site_fract_y
_atom_site_fract_z
_atom_site_charge
C1       C      0.818080000000     0.989340000000     0.327960000000     0.380091   
C2       C      0.015050000000     0.132750000000     0.641140000000     0.383479   
C3       C      0.968990000000     0.122890000000     0.314300000000     0.386672   
C4       C      0.832220000000     0.007600000000     0.656520000000     0.383491   
C5       C      0.948320000000     0.831820000000     0.658440000000     0.382141   
C6       C      0.125740000000     0.945870000000     0.313180000000     0.382179   
C7       C      0.138860000000     0.959530000000     0.643280000000     0.376378   
C8       C      0.961270000000     0.814360000000     0.328550000000     0.377522   
C9       C      0.987350000000     0.306310000000     0.133670000000     0.3768     
C10      C      0.821680000000     0.633540000000     0.964040000000     0.384342   
C11      C      0.832830000000     0.305840000000     0.977040000000     0.377703   
C12      C      0.962040000000     0.633210000000     0.139310000000     0.373026   
C13      C      0.130230000000     0.641810000000     0.999250000000     0.380392   
C14      C      0.992500000000     0.314530000000     0.821730000000     0.375888   
C15      C      0.975150000000     0.641440000000     0.827070000000     0.386493   
C16      C      0.141430000000     0.316090000000     0.960860000000     0.388338   
C17      C      0.646110000000     0.124830000000     0.990800000000     0.37523    
C18      C      0.310890000000     0.975810000000     0.134850000000     0.377499   
C19      C      0.638480000000     0.988840000000     0.139840000000     0.37885    
C20      C      0.319380000000     0.133250000000     0.982000000000     0.380104   
C21      C      0.322390000000     0.986580000000     0.821520000000     0.381083   
C22      C      0.641580000000     0.814880000000     0.992060000000     0.377839   
C23      C      0.314160000000     0.822810000000     0.981770000000     0.373965   
C24      C      0.649240000000     0.969620000000     0.829860000000     0.375692   
C25      C      0.754500000000     0.783630000000     0.001720000000    -0.0102562  
C26      C      0.670910000000     0.701920000000     0.996350000000    -0.0457174  
C27      C      0.793850000000     0.746770000000     0.952940000000    -0.0153105  
C28      C      0.708380000000     0.669110000000     0.943950000000     0.0900803  
C29      C      0.678740000000     0.235310000000     0.003260000000    -0.00888669 
C30      C      0.758320000000     0.148600000000     0.010940000000    -0.0371495  
C31      C      0.723510000000     0.273080000000     0.961390000000    -0.0175953  
C32      C      0.806760000000     0.189210000000     0.974350000000     0.0867031  
C33      C      0.201830000000     0.794710000000     0.964820000000    -0.0188879  
C34      C      0.283580000000     0.711080000000     0.986710000000    -0.0481174  
C35      C      0.153620000000     0.756100000000     0.004150000000    -0.00958545 
C36      C      0.237860000000     0.679870000000     0.033120000000     0.0928561  
C37      C      0.206390000000     0.164540000000     0.989430000000    -0.017481   
C38      C      0.290810000000     0.246210000000     0.988030000000    -0.0467991  
C39      C      0.169460000000     0.204480000000     0.941380000000    -0.0114759  
C40      C      0.254900000000     0.282630000000     0.937040000000     0.0925857  
C41      C      0.763510000000     0.958670000000     0.801930000000    -0.0193683  
C42      C      0.683200000000     0.982890000000     0.718070000000    -0.0499629  
C43      C      0.806760000000     0.008940000000     0.771810000000    -0.00779107 
C44      C      0.723090000000     0.038190000000     0.696240000000     0.0955063  
C45      C      0.169690000000     0.951010000000     0.756760000000    -0.0146966  
C46      C      0.251670000000     0.949410000000     0.670830000000    -0.042317   
C47      C      0.209550000000     0.997320000000     0.793820000000    -0.0158559  
C48      C      0.288810000000     0.998920000000     0.705950000000     0.0871864  
C49      C      0.275400000000     0.974010000000     0.247200000000    -0.0170816  
C50      C      0.196340000000     0.984360000000     0.160240000000    -0.0459074  
C51      C      0.235180000000     0.923480000000     0.278670000000    -0.0121137  
C52      C      0.154740000000     0.935970000000     0.195220000000     0.0903571  
C53      C      0.750030000000     0.006140000000     0.166970000000    -0.00906203 
C54      C      0.665310000000     0.029440000000     0.245200000000    -0.0410592  
C55      C      0.788780000000     0.972510000000     0.217560000000    -0.0158532  
C56      C      0.703870000000     0.000120000000     0.299250000000     0.0921403  
C57      C      0.985000000000     0.202060000000     0.792370000000    -0.0172674  
C58      C      0.997740000000     0.286180000000     0.708300000000    -0.0477265  
C59      C      0.029740000000     0.159370000000     0.754210000000    -0.0109205  
C60      C      0.045280000000     0.243650000000     0.673930000000     0.0921407  
C61      C      0.946990000000     0.804770000000     0.773650000000    -0.013425   
C62      C      0.904760000000     0.730820000000     0.695770000000    -0.043997   
C63      C      0.991070000000     0.753100000000     0.799270000000    -0.015513   
C64      C      0.951120000000     0.679410000000     0.715850000000     0.0935087  
C65      C      0.943660000000     0.744900000000     0.168230000000    -0.0142495  
C66      C      0.929790000000     0.660070000000     0.248810000000    -0.041936   
C67      C      0.976660000000     0.785340000000     0.216840000000    -0.0155684  
C68      C      0.961570000000     0.699380000000     0.299450000000     0.0868436  
C69      C      0.001390000000     0.192680000000     0.161540000000    -0.0117902  
C70      C      0.987710000000     0.273900000000     0.246450000000    -0.0482597  
C71      C      0.957650000000     0.148650000000     0.199810000000    -0.014738   
C72      C      0.937790000000     0.233020000000     0.277670000000     0.0937528  
H1       H      0.899370000000     0.087500000000     0.573710000000     0.205377   
H2       H      0.083590000000     0.055500000000     0.379950000000     0.201711   
H3       H      0.065610000000     0.869080000000     0.576670000000     0.207822   
H4       H      0.866700000000     0.887320000000     0.400450000000     0.201513   
H5       H      0.118540000000     0.158850000000     0.477470000000     0.128477   
H6       H      0.205040000000     0.059680000000     0.459870000000     0.183645   
H7       H      0.155620000000     0.837440000000     0.447260000000     0.14591    
H8       H      0.062940000000     0.751150000000     0.466020000000     0.198576   
H9       H      0.842860000000     0.786100000000     0.482680000000     0.122705   
H10      H      0.755290000000     0.886780000000     0.502630000000     0.183955   
H11      H      0.800450000000     0.108930000000     0.449440000000     0.141565   
H12      H      0.882840000000     0.185400000000     0.496140000000     0.189919   
H13      H      0.048020000000     0.746450000000     0.543910000000     0.197257   
H14      H      0.713710000000     0.954040000000     0.502140000000     0.194969   
H15      H      0.943720000000     0.233920000000     0.488500000000     0.195414   
H16      H      0.245180000000     0.992890000000     0.473860000000     0.199367   
H17      H      0.877410000000     0.558300000000     0.075400000000     0.208043   
H18      H      0.891090000000     0.380670000000     0.878230000000     0.20565    
H19      H      0.078660000000     0.569150000000     0.887210000000     0.208399   
H20      H      0.080670000000     0.379910000000     0.078610000000     0.203053   
H21      H      0.781140000000     0.470960000000     0.861810000000     0.124296   
H22      H      0.874690000000     0.482440000000     0.761490000000     0.18321    
H23      H      0.097960000000     0.445280000000     0.783280000000     0.144409   
H24      H      0.181640000000     0.490570000000     0.861980000000     0.195021   
H25      H      0.176880000000     0.476980000000     0.102800000000     0.125212   
H26      H      0.090160000000     0.469930000000     0.197970000000     0.183984   
H27      H      0.867910000000     0.424290000000     0.172360000000     0.146971   
H28      H      0.759310000000     0.512200000000     0.075400000000     0.193407   
H29      H      0.234300000000     0.502240000000     0.918620000000     0.197391   
H30      H      0.026200000000     0.472900000000     0.244920000000     0.202116   
H31      H      0.770100000000     0.434910000000     0.086640000000     0.200341   
H32      H      0.937550000000     0.463480000000     0.716870000000     0.198019   
H33      H      0.389580000000     0.072300000000     0.076890000000     0.207143   
H34      H      0.569970000000     0.875020000000     0.085640000000     0.204504   
H35      H      0.392850000000     0.880160000000     0.884400000000     0.207536   
H36      H      0.579350000000     0.069590000000     0.885350000000     0.203667   
H37      H      0.459970000000     0.857900000000     0.183960000000     0.129754   
H38      H      0.478260000000     0.758630000000     0.101060000000     0.185191   
H39      H      0.521170000000     0.778400000000     0.877000000000     0.148123   
H40      H      0.443790000000     0.871350000000     0.768090000000     0.193594   
H41      H      0.487400000000     0.086900000000     0.774860000000     0.125761   
H42      H      0.499990000000     0.184040000000     0.861500000000     0.183258   
H43      H      0.510070000000     0.163870000000     0.094780000000     0.144312   
H44      H      0.452800000000     0.093310000000     0.181620000000     0.190851   
H45      H      0.522190000000     0.865870000000     0.771440000000     0.201147   
H46      H      0.477080000000     0.232910000000     0.919070000000     0.202476   
H47      H      0.474630000000     0.040720000000     0.236880000000     0.202448   
H48      H      0.471990000000     0.712130000000     0.038200000000     0.201624   
H49      H      0.783670000000     0.766800000000     0.905200000000     0.0389143  
H50      H      0.764160000000     0.834510000000     0.995630000000     0.0424957  
H51      H      0.694960000000     0.692620000000     0.898570000000     0.0201823  
H52      H      0.619990000000     0.693600000000     0.989480000000     0.0526654  
H53      H      0.844420000000     0.754830000000     0.961900000000     0.0455935  
H54      H      0.770330000000     0.769180000000     0.049780000000     0.0370178  
H55      H      0.684100000000     0.680570000000     0.042760000000     0.0437991  
H56      H      0.709550000000     0.581490000000     0.900670000000     0.102183   
H57      H      0.694750000000     0.578590000000     0.982920000000     0.0935191  
H58      H      0.714610000000     0.261310000000     0.911170000000     0.0378558  
H59      H      0.629770000000     0.247780000000     0.989820000000     0.040731   
H60      H      0.805830000000     0.174160000000     0.924080000000     0.0177397  
H61      H      0.767570000000     0.098430000000     0.999740000000     0.0539202  
H62      H      0.711230000000     0.323550000000     0.967210000000     0.04639    
H63      H      0.685150000000     0.249450000000     0.053250000000     0.0384145  
H64      H      0.765990000000     0.153910000000     0.062610000000     0.0464392  
H65      H      0.904790000000     0.180800000000     0.966110000000     0.0981532  
H66      H      0.876820000000     0.195880000000     0.043110000000     0.100113   
H67      H      0.150750000000     0.776270000000     0.052430000000     0.0391774  
H68      H      0.191320000000     0.845500000000     0.971300000000     0.044939   
H69      H      0.241920000000     0.705160000000     0.078720000000     0.0210705  
H70      H      0.332230000000     0.702280000000     0.003560000000     0.0566373  
H71      H      0.106650000000     0.762620000000     0.982430000000     0.0421927  
H72      H      0.194710000000     0.784410000000     0.913960000000     0.0377458  
H73      H      0.279330000000     0.688850000000     0.939610000000     0.0472726  
H74      H      0.229840000000     0.593610000000     0.080730000000     0.0978943  
H75      H      0.262260000000     0.588380000000     0.003800000000     0.0951409  
H76      H      0.182280000000     0.187940000000     0.893100000000     0.0385948  
H77      H      0.196820000000     0.114160000000     0.981120000000     0.0455706  
H78      H      0.269630000000     0.262250000000     0.890770000000     0.0203536  
H79      H      0.341940000000     0.254530000000     0.981390000000     0.0556036  
H80      H      0.118500000000     0.195650000000     0.948490000000     0.0450295  
H81      H      0.188560000000     0.176010000000     0.037680000000     0.0405357  
H82      H      0.276740000000     0.264760000000     0.035210000000     0.0492429  
H83      H      0.252400000000     0.373550000000     0.898770000000     0.0959504  
H84      H      0.269060000000     0.370010000000     0.980100000000     0.0996316  
H85      H      0.799700000000     0.053260000000     0.798440000000     0.0359323  
H86      H      0.770950000000     0.957040000000     0.853890000000     0.0451252  
H87      H      0.711480000000     0.077700000000     0.728640000000     0.018479   
H88      H      0.632950000000     0.994180000000     0.709030000000     0.0580708  
H89      H      0.856510000000     0.993770000000     0.777890000000     0.0422779  
H90      H      0.778400000000     0.912260000000     0.782990000000     0.0411132  
H91      H      0.696440000000     0.940980000000     0.689680000000     0.0492143  
H92      H      0.736580000000     0.094790000000     0.615780000000     0.0980958  
H93      H      0.700560000000     0.022970000000     0.600620000000     0.0958788  
H94      H      0.192460000000     0.045690000000     0.782380000000     0.0411292  
H95      H      0.119200000000     0.960450000000     0.767430000000     0.0443653  
H96      H      0.269980000000     0.045560000000     0.690260000000     0.0229381  
H97      H      0.260480000000     0.955160000000     0.619110000000     0.0540753  
H98      H      0.200630000000     0.989220000000     0.845180000000     0.0450811  
H99      H      0.180940000000     0.902740000000     0.774260000000     0.0374412  
H100     H      0.269400000000     0.902000000000     0.685140000000     0.0445062  
H101     H      0.379840000000     0.034450000000     0.699880000000     0.10589    
H102     H      0.376110000000     0.951880000000     0.696990000000     0.093279   
H103     H      0.249620000000     0.877260000000     0.258850000000     0.0386818  
H104     H      0.325480000000     0.963950000000     0.258190000000     0.0438106  
H105     H      0.168640000000     0.889140000000     0.176330000000     0.020598   
H106     H      0.189720000000     0.979800000000     0.108390000000     0.0571151  
H107     H      0.245730000000     0.921620000000     0.330010000000     0.0413423  
H108     H      0.262560000000     0.020060000000     0.268350000000     0.0383995  
H109     H      0.180140000000     0.032320000000     0.173600000000     0.0464566  
H110     H      0.060300000000     0.910540000000     0.195030000000     0.0994677  
H111     H      0.072600000000     0.991900000000     0.192370000000     0.0968526  
H112     H      0.780270000000     0.921230000000     0.214470000000     0.0381909  
H113     H      0.761320000000     0.984740000000     0.120410000000     0.0428652  
H114     H      0.684990000000     0.952340000000     0.308790000000     0.015986   
H115     H      0.614560000000     0.023840000000     0.256830000000     0.0531512  
H116     H      0.839160000000     0.980050000000     0.205460000000     0.0451791  
H117     H      0.764350000000     0.056190000000     0.164570000000     0.038496   
H118     H      0.674330000000     0.080820000000     0.243060000000     0.047114   
H119     H      0.690180000000     0.012470000000     0.396980000000     0.092833   
H120     H      0.722270000000     0.077470000000     0.356840000000     0.0938724  
H121     H      0.078110000000     0.165720000000     0.772270000000     0.0377239  
H122     H      0.991550000000     0.191750000000     0.843600000000     0.0431019  
H123     H      0.091820000000     0.252360000000     0.695520000000     0.0197845  
H124     H      0.011360000000     0.335870000000     0.700020000000     0.0522803  
H125     H      0.017030000000     0.109720000000     0.763930000000     0.0457173  
H126     H      0.935930000000     0.189650000000     0.780700000000     0.0383896  
H127     H      0.950540000000     0.279770000000     0.687440000000     0.0435336  
H128     H      0.086360000000     0.238160000000     0.583750000000     0.0983152  
H129     H      0.006770000000     0.261570000000     0.584110000000     0.0924135  
H130     H      0.038280000000     0.760150000000     0.777300000000     0.0377955  
H131     H      0.968990000000     0.851280000000     0.779980000000     0.0427576  
H132     H      0.993780000000     0.683780000000     0.685060000000     0.0174546  
H133     H      0.891210000000     0.724200000000     0.645650000000     0.0592558  
H134     H      0.996300000000     0.759850000000     0.851000000000     0.0439868  
H135     H      0.902630000000     0.803890000000     0.802090000000     0.0384678  
H136     H      0.861200000000     0.726360000000     0.725210000000     0.0473706  
H137     H      0.955170000000     0.583360000000     0.695920000000     0.0970409  
H138     H      0.886750000000     0.607640000000     0.737210000000     0.0932889  
H139     H      0.028310000000     0.779350000000     0.210000000000     0.0409526  
H140     H      0.963230000000     0.756250000000     0.120440000000     0.0441693  
H141     H      0.011640000000     0.683650000000     0.301410000000     0.0200149  
H142     H      0.938640000000     0.609560000000     0.259870000000     0.0553273  
H143     H      0.964930000000     0.835190000000     0.205460000000     0.0419906  
H144     H      0.892840000000     0.757840000000     0.168380000000     0.0370925  
H145     H      0.878050000000     0.668050000000     0.252320000000     0.0460109  
H146     H      0.961770000000     0.685920000000     0.398090000000     0.0980082  
H147     H      0.888610000000     0.708840000000     0.366950000000     0.0971669  
H148     H      0.909540000000     0.153440000000     0.180170000000     0.0374926  
H149     H      0.994870000000     0.184280000000     0.110240000000     0.0405283  
H150     H      0.893100000000     0.243080000000     0.252290000000     0.0195876  
H151     H      0.976270000000     0.323960000000     0.256130000000     0.0536377  
H152     H      0.973690000000     0.099390000000     0.192410000000     0.0422045  
H153     H      0.050760000000     0.179570000000     0.172900000000     0.0360784  
H154     H      0.034010000000     0.262760000000     0.268090000000     0.0490598  
H155     H      0.892620000000     0.223240000000     0.365600000000     0.094333   
H156     H      0.968740000000     0.254200000000     0.369340000000     0.0953995  
N1       N      0.776610000000     0.679590000000     0.954260000000    -0.175339   
N2       N      0.687160000000     0.769010000000     0.996080000000    -0.161624   
N3       N      0.689450000000     0.603390000000     0.940190000000    -0.196993   
N4       N      0.789890000000     0.257660000000     0.975880000000    -0.173319   
N5       N      0.693040000000     0.167890000000     0.997550000000    -0.161378   
N6       N      0.869020000000     0.174050000000     0.999850000000    -0.198908   
N7       N      0.172610000000     0.689110000000     0.009740000000    -0.173364   
N8       N      0.267690000000     0.778500000000     0.980590000000    -0.157127   
N9       N      0.257350000000     0.614590000000     0.045160000000    -0.197035   
N10      N      0.186530000000     0.271360000000     0.946730000000    -0.175876   
N11      N      0.273970000000     0.179240000000     0.985460000000    -0.159366   
N12      N      0.273600000000     0.348630000000     0.935930000000    -0.199313   
N13      N      0.790130000000     0.020200000000     0.704830000000    -0.176462   
N14      N      0.696790000000     0.969890000000     0.785400000000    -0.158651   
N15      N      0.706380000000     0.059690000000     0.632330000000    -0.197117   
N16      N      0.276920000000     0.992140000000     0.775570000000    -0.173835   
N17      N      0.184620000000     0.954700000000     0.688390000000    -0.159027   
N18      N      0.354880000000     0.995150000000     0.685830000000    -0.198463   
N19      N      0.168310000000     0.935910000000     0.264390000000    -0.175549   
N20      N      0.262770000000     0.976690000000     0.178690000000    -0.159049   
N21      N      0.088760000000     0.947310000000     0.179080000000    -0.198209   
N22      N      0.772160000000     0.993120000000     0.282510000000    -0.175086   
N23      N      0.682980000000     0.002980000000     0.183600000000    -0.15857    
N24      N      0.692120000000     0.039120000000     0.355090000000    -0.196656   
N25      N      0.028720000000     0.176790000000     0.686180000000    -0.174354   
N26      N      0.994470000000     0.269070000000     0.776220000000    -0.159466   
N27      N      0.050000000000     0.262370000000     0.607080000000    -0.197661   
N28      N      0.969620000000     0.689200000000     0.783040000000    -0.175124   
N29      N      0.932860000000     0.791990000000     0.707260000000    -0.160615   
N30      N      0.921720000000     0.618900000000     0.703810000000    -0.197233   
N31      N      0.960350000000     0.767990000000     0.283280000000    -0.173447   
N32      N      0.950450000000     0.677920000000     0.184480000000    -0.158632   
N33      N      0.930800000000     0.683890000000     0.360140000000    -0.196383   
N34      N      0.955640000000     0.166200000000     0.267340000000    -0.175761   
N35      N      0.990850000000     0.259270000000     0.178410000000    -0.161434   
N36      N      0.927150000000     0.250860000000     0.343770000000    -0.198492   
O1       O      0.801320000000     0.992790000000     0.386850000000    -0.369755   
O2       O      0.875850000000     0.980890000000     0.309630000000    -0.353969   
O3       O      0.015400000000     0.149430000000     0.582060000000    -0.362144   
O4       O      0.003130000000     0.076080000000     0.660170000000    -0.351099   
O5       O      0.977190000000     0.142730000000     0.371090000000    -0.360623   
O6       O      0.971140000000     0.064130000000     0.299740000000    -0.356304   
O7       O      0.811090000000     0.004170000000     0.599640000000    -0.361446   
O8       O      0.890990000000     0.000100000000     0.670200000000    -0.352064   
O9       O      0.786810000000     0.086550000000     0.488530000000    -0.35012    
O10      O      0.753740000000     0.932120000000     0.500540000000    -0.514893   
O11      O      0.927390000000     0.191800000000     0.490080000000    -0.512867   
O12      O      0.080640000000     0.178780000000     0.458830000000    -0.347025   
O13      O      0.915200000000     0.052280000000     0.422110000000    -0.468168   
O14      O      0.920200000000     0.056930000000     0.547030000000    -0.609744   
O15      O      0.942630000000     0.811230000000     0.601420000000    -0.360644   
O16      O      0.966380000000     0.887820000000     0.671590000000    -0.355358   
O17      O      0.147060000000     0.945800000000     0.370400000000    -0.366271   
O18      O      0.067150000000     0.954800000000     0.300350000000    -0.360744   
O19      O      0.156310000000     0.958470000000     0.584230000000    -0.354204   
O20      O      0.080860000000     0.964600000000     0.661860000000    -0.353247   
O21      O      0.959550000000     0.798080000000     0.387770000000    -0.364855   
O22      O      0.965290000000     0.872290000000     0.309700000000    -0.355475   
O23      O      0.039730000000     0.765250000000     0.502930000000    -0.515656   
O24      O      0.882610000000     0.764270000000     0.493990000000    -0.333198   
O25      O      0.169290000000     0.861820000000     0.484100000000    -0.341158   
O26      O      0.205590000000     0.015110000000     0.469070000000    -0.510781   
O27      O      0.042710000000     0.897340000000     0.548930000000    -0.607107   
O28      O      0.038100000000     0.892800000000     0.422920000000    -0.468732   
O29      O      0.900930000000     0.915950000000     0.560230000000    -0.47317    
O30      O      0.056730000000     0.034100000000     0.410260000000    -0.618284   
O31      O      0.896030000000     0.910730000000     0.425160000000    -0.622612   
O32      O      0.062530000000     0.038700000000     0.545930000000    -0.474303   
O33      O      0.983250000000     0.363490000000     0.153530000000    -0.367962   
O34      O      0.989370000000     0.291580000000     0.074430000000    -0.358366   
O35      O      0.805190000000     0.575410000000     0.962700000000    -0.367425   
O36      O      0.878960000000     0.650740000000     0.973100000000    -0.353633   
O37      O      0.811410000000     0.363160000000     0.975540000000    -0.360459   
O38      O      0.892130000000     0.292280000000     0.978230000000    -0.358145   
O39      O      0.966580000000     0.575080000000     0.157910000000    -0.354889   
O40      O      0.965410000000     0.650930000000     0.080470000000    -0.351308   
O41      O      0.888230000000     0.464440000000     0.182450000000    -0.340478   
O42      O      0.044960000000     0.471430000000     0.203040000000    -0.512876   
O43      O      0.779290000000     0.473080000000     0.063270000000    -0.514776   
O44      O      0.762880000000     0.464320000000     0.904690000000    -0.334932   
O45      O      0.910610000000     0.407220000000     0.049330000000    -0.469831   
O46      O      0.905940000000     0.532770000000     0.050400000000    -0.608063   
O47      O      0.150670000000     0.584410000000     0.998790000000    -0.363759   
O48      O      0.071570000000     0.656790000000     0.991240000000    -0.350976   
O49      O      0.992210000000     0.372770000000     0.803160000000    -0.367126   
O50      O      0.989840000000     0.297080000000     0.880590000000    -0.352392   
O51      O      0.975840000000     0.584290000000     0.807390000000    -0.362414   
O52      O      0.979330000000     0.656070000000     0.886100000000    -0.35653    
O53      O      0.158070000000     0.373890000000     0.966270000000    -0.360405   
O54      O      0.083910000000     0.298150000000     0.966780000000    -0.356836   
O55      O      0.191710000000     0.493700000000     0.906280000000    -0.513682   
O56      O      0.196600000000     0.466840000000     0.061400000000    -0.345144   
O57      O      0.075610000000     0.486170000000     0.779200000000    -0.347761   
O58      O      0.919310000000     0.474050000000     0.757560000000    -0.515465   
O59      O      0.052940000000     0.540590000000     0.911880000000    -0.609339   
O60      O      0.057650000000     0.415600000000     0.910090000000    -0.467815   
O61      O      0.048670000000     0.541570000000     0.056560000000    -0.475206   
O62      O      0.915050000000     0.407550000000     0.905120000000    -0.623951   
O63      O      0.053880000000     0.407120000000     0.053470000000    -0.619073   
O64      O      0.910130000000     0.541310000000     0.907170000000    -0.474601   
O65      O      0.588740000000     0.145650000000     0.987180000000    -0.36214    
O66      O      0.661290000000     0.065790000000     0.989550000000    -0.349175   
O67      O      0.367920000000     0.972710000000     0.155530000000    -0.360113   
O68      O      0.297010000000     0.978400000000     0.075410000000    -0.351486   
O69      O      0.580040000000     0.988690000000     0.157990000000    -0.354798   
O70      O      0.656880000000     0.978980000000     0.082280000000    -0.352415   
O71      O      0.377370000000     0.150700000000     0.979790000000    -0.360442   
O72      O      0.302190000000     0.075200000000     0.982200000000    -0.352794   
O73      O      0.478400000000     0.179230000000     0.064140000000    -0.3403     
O74      O      0.487400000000     0.190980000000     0.904990000000    -0.51553    
O75      O      0.465860000000     0.051130000000     0.193190000000    -0.507752   
O76      O      0.479520000000     0.896060000000     0.200840000000    -0.343894   
O77      O      0.541140000000     0.042960000000     0.054240000000    -0.465646   
O78      O      0.416740000000     0.045920000000     0.051290000000    -0.609038   
O79      O      0.380850000000     0.986250000000     0.804240000000    -0.366435   
O80      O      0.304420000000     0.982480000000     0.880290000000    -0.353506   
O81      O      0.583600000000     0.797280000000     0.990740000000    -0.367771   
O82      O      0.658570000000     0.872990000000     0.990620000000    -0.356278   
O83      O      0.371680000000     0.802860000000     0.987070000000    -0.355483   
O84      O      0.298680000000     0.881730000000     0.976840000000    -0.350489   
O85      O      0.592130000000     0.973830000000     0.809690000000    -0.363446   
O86      O      0.663570000000     0.966440000000     0.889200000000    -0.353774   
O87      O      0.483290000000     0.886780000000     0.783270000000    -0.513713   
O88      O      0.492580000000     0.043810000000     0.758360000000    -0.33268    
O89      O      0.479080000000     0.773720000000     0.896930000000    -0.342779   
O90      O      0.475580000000     0.753590000000     0.055780000000    -0.5114     
O91      O      0.419340000000     0.905040000000     0.910830000000    -0.609404   
O92      O      0.544760000000     0.901460000000     0.913430000000    -0.469035   
O93      O      0.416130000000     0.048220000000     0.907320000000    -0.473646   
O94      O      0.544020000000     0.900510000000     0.057960000000    -0.620971   
O95      O      0.550940000000     0.044260000000     0.910610000000    -0.622599   
O96      O      0.408950000000     0.903530000000     0.054810000000    -0.475319   
Zr1      Zr     0.849860000000     0.990290000000     0.491230000000     1.28918    
Zr2      Zr     0.997720000000     0.102990000000     0.478180000000     1.28623    
Zr3      Zr     0.960710000000     0.846770000000     0.492540000000     1.28922    
Zr4      Zr     0.108160000000     0.959240000000     0.479210000000     1.2884     
Zr5      Zr     0.974140000000     0.970500000000     0.366280000000     1.26109    
Zr6      Zr     0.983500000000     0.979320000000     0.604330000000     1.25765    
Zr7      Zr     0.978990000000     0.470650000000     0.111220000000     1.29033    
Zr8      Zr     0.852200000000     0.470610000000     0.974980000000     1.29072    
Zr9      Zr     0.111390000000     0.477760000000     0.986150000000     1.28778    
Zr10     Zr     0.984590000000     0.477540000000     0.849750000000     1.29188    
Zr11     Zr     0.986190000000     0.355870000000     0.978480000000     1.26302    
Zr12     Zr     0.977530000000     0.592700000000     0.982340000000     1.25655    
Zr13     Zr     0.482390000000     0.103700000000     0.978520000000     1.29454    
Zr14     Zr     0.475670000000     0.971550000000     0.113440000000     1.29148    
Zr15     Zr     0.484780000000     0.976340000000     0.851890000000     1.28991    
Zr16     Zr     0.478430000000     0.844440000000     0.986690000000     1.29006    
Zr17     Zr     0.598910000000     0.970950000000     0.985140000000     1.26232    
Zr18     Zr     0.361530000000     0.977060000000     0.979700000000     1.25649    


