data_structure

_audit_creation_method RASPA-1.0
_audit_creation_date 2023-6-5
_audit_author_name 'Poobodin Mano'

_cell_length_a    21.447
_cell_length_b    21.4634
_cell_length_c    21.4394
_cell_angle_alpha 89.2564
_cell_angle_beta  89.2563
_cell_angle_gamma 89.2563
_cell_volume      9866.63

_symmetry_cell_setting          triclinic
_symmetry_space_group_name_Hall 'P 1'
_symmetry_space_group_name_H-M  'P 1'
_symmetry_Int_Tables_number     1

_symmetry_equiv_pos_as_xyz 'x,y,z'

loop_
_atom_site_label
_atom_site_type_symbol
_atom_site_fract_x
_atom_site_fract_y
_atom_site_fract_z
_atom_site_charge
C1       C      0.821470000000     0.977110000000     0.315560000000     0.384096   
C2       C      0.978680000000     0.129530000000     0.639970000000     0.374134   
C3       C      0.971460000000     0.129020000000     0.314470000000     0.385183   
C4       C      0.823430000000     0.971990000000     0.640760000000     0.386961   
C5       C      0.972800000000     0.822060000000     0.640230000000     0.385831   
C6       C      0.129720000000     0.969210000000     0.314090000000     0.395849   
C7       C      0.131590000000     0.977280000000     0.639100000000     0.37604    
C8       C      0.979030000000     0.821390000000     0.314490000000     0.381383   
C9       C      0.968660000000     0.313280000000     0.131770000000     0.39665    
C10      C      0.825370000000     0.640940000000     0.973070000000     0.384903   
C11      C      0.817880000000     0.316540000000     0.978730000000     0.383153   
C12      C      0.979690000000     0.637610000000     0.131910000000     0.374377   
C13      C      0.133540000000     0.634740000000     0.979400000000     0.373435   
C14      C      0.977670000000     0.313260000000     0.822700000000     0.383459   
C15      C      0.973070000000     0.637730000000     0.823010000000     0.398208   
C16      C      0.126480000000     0.309140000000     0.974780000000     0.394472   
C17      C      0.635720000000     0.132520000000     0.978730000000     0.373804   
C18      C      0.312380000000     0.966670000000     0.129770000000     0.38557    
C19      C      0.637180000000     0.976750000000     0.133610000000     0.371416   
C20      C      0.310870000000     0.126230000000     0.972870000000     0.386383   
C21      C      0.315810000000     0.977260000000     0.821270000000     0.385152   
C22      C      0.642760000000     0.825290000000     0.975550000000     0.395213   
C23      C      0.317480000000     0.817190000000     0.980430000000     0.384656   
C24      C      0.640990000000     0.974860000000     0.825480000000     0.395931   
C25      C      0.719560000000     0.673280000000     0.968000000000     0.0189149  
C26      C      0.797640000000     0.748900000000     0.976160000000    -0.0349084  
C27      C      0.674160000000     0.719660000000     0.968870000000     0.033462   
C28      C      0.751940000000     0.796030000000     0.977460000000     0.19913    
C29      C      0.743170000000     0.162620000000     0.980650000000     0.022807   
C30      C      0.664380000000     0.239660000000     0.977900000000    -0.0353119  
C31      C      0.788600000000     0.209200000000     0.980590000000     0.0341337  
C32      C      0.709430000000     0.286430000000     0.977450000000     0.196068   
C33      C      0.163640000000     0.742230000000     0.977000000000     0.0212521  
C34      C      0.240570000000     0.663640000000     0.984320000000    -0.0364631  
C35      C      0.210170000000     0.787750000000     0.977390000000     0.0327608  
C36      C      0.287260000000     0.708790000000     0.985230000000     0.199132   
C37      C      0.278880000000     0.232290000000     0.970370000000     0.0232537  
C38      C      0.202720000000     0.154130000000     0.973200000000    -0.0332533  
C39      C      0.232510000000     0.277750000000     0.970980000000     0.0320599  
C40      C      0.155550000000     0.199880000000     0.973240000000     0.20056    
C41      C      0.717290000000     0.969720000000     0.672770000000     0.022958   
C42      C      0.795610000000     0.972950000000     0.748720000000    -0.0338911  
C43      C      0.671920000000     0.970640000000     0.719320000000     0.0322812  
C44      C      0.750080000000     0.973320000000     0.795980000000     0.202356   
C45      C      0.161550000000     0.974890000000     0.746850000000     0.0218999  
C46      C      0.238480000000     0.980660000000     0.668020000000    -0.0329859  
C47      C      0.208260000000     0.974860000000     0.792300000000     0.0329473  
C48      C      0.285300000000     0.980260000000     0.712960000000     0.196057   
C49      C      0.204750000000     0.969430000000     0.159740000000     0.0222214  
C50      C      0.282270000000     0.957280000000     0.235990000000    -0.0385702  
C51      C      0.158970000000     0.969900000000     0.206610000000     0.0332721  
C52      C      0.237030000000     0.957150000000     0.282830000000     0.200364   
C53      C      0.668350000000     0.976170000000     0.240300000000     0.0181912  
C54      C      0.745180000000     0.978640000000     0.161170000000    -0.035298   
C55      C      0.714780000000     0.976350000000     0.285510000000     0.0317844  
C56      C      0.792190000000     0.978360000000     0.206420000000     0.199488   
C57      C      0.976780000000     0.159080000000     0.747970000000     0.0217377  
C58      C      0.982350000000     0.236170000000     0.669370000000    -0.0371343  
C59      C      0.976710000000     0.205650000000     0.793620000000     0.031766   
C60      C      0.982730000000     0.282760000000     0.714470000000     0.19843    
C61      C      0.976370000000     0.791720000000     0.747660000000     0.0223408  
C62      C      0.964110000000     0.716040000000     0.670290000000    -0.0379219  
C63      C      0.976350000000     0.744890000000     0.793410000000     0.0353599  
C64      C      0.963340000000     0.669230000000     0.715560000000     0.202635   
C65      C      0.980430000000     0.668670000000     0.238580000000     0.0215481  
C66      C      0.980430000000     0.745670000000     0.159660000000    -0.0342864  
C67      C      0.980230000000     0.714910000000     0.283960000000     0.0297095  
C68      C      0.980800000000     0.792520000000     0.205130000000     0.196996   
C69      C      0.970390000000     0.159190000000     0.206930000000     0.0244174  
C70      C      0.963420000000     0.235420000000     0.284910000000    -0.0369634  
C71      C      0.969320000000     0.206000000000     0.161180000000     0.0365817  
C72      C      0.961600000000     0.282250000000     0.239660000000     0.201013   
H1       H      0.879770000000     0.070840000000     0.566820000000     0.212007   
H2       H      0.072470000000     0.072180000000     0.382510000000     0.205739   
H3       H      0.073020000000     0.878930000000     0.565910000000     0.210817   
H4       H      0.880410000000     0.879080000000     0.385480000000     0.206602   
H5       H      0.087560000000     0.176250000000     0.467870000000     0.127902   
H6       H      0.186320000000     0.090420000000     0.464920000000     0.190973   
H7       H      0.169240000000     0.864390000000     0.445260000000     0.147526   
H8       H      0.079370000000     0.760240000000     0.518840000000     0.202954   
H9       H      0.866210000000     0.773730000000     0.475730000000     0.127185   
H10      H      0.764600000000     0.862120000000     0.475840000000     0.187927   
H11      H      0.783650000000     0.085310000000     0.440650000000     0.150286   
H12      H      0.875020000000     0.191700000000     0.520130000000     0.203795   
H13      H      0.086940000000     0.767450000000     0.441330000000     0.204474   
H14      H      0.717150000000     0.924380000000     0.481850000000     0.205334   
H15      H      0.866620000000     0.184770000000     0.443090000000     0.206236   
H16      H      0.234880000000     0.029340000000     0.473920000000     0.216449   
H17      H      0.880850000000     0.566400000000     0.072890000000     0.211299   
H18      H      0.878340000000     0.385250000000     0.880890000000     0.206747   
H19      H      0.073750000000     0.562520000000     0.880490000000     0.212706   
H20      H      0.070370000000     0.379370000000     0.074080000000     0.20674    
H21      H      0.773780000000     0.469630000000     0.867220000000     0.125589   
H22      H      0.864090000000     0.480360000000     0.764710000000     0.190724   
H23      H      0.086410000000     0.437860000000     0.784450000000     0.147438   
H24      H      0.193090000000     0.512750000000     0.875870000000     0.203985   
H25      H      0.176480000000     0.461220000000     0.089310000000     0.127403   
H26      H      0.089410000000     0.463160000000     0.188400000000     0.190732   
H27      H      0.864690000000     0.443000000000     0.170610000000     0.14906    
H28      H      0.761790000000     0.520750000000     0.080010000000     0.20243    
H29      H      0.185060000000     0.435780000000     0.868610000000     0.205466   
H30      H      0.027930000000     0.473340000000     0.236290000000     0.215539   
H31      H      0.767150000000     0.443150000000     0.086960000000     0.211213   
H32      H      0.926630000000     0.470930000000     0.718080000000     0.221944   
H33      H      0.383640000000     0.068310000000     0.072100000000     0.21178    
H34      H      0.570710000000     0.878770000000     0.075260000000     0.205552   
H35      H      0.391550000000     0.878680000000     0.881510000000     0.211296   
H36      H      0.568770000000     0.074100000000     0.880380000000     0.207103   
H37      H      0.480610000000     0.861550000000     0.180710000000     0.126545   
H38      H      0.478070000000     0.762720000000     0.093870000000     0.187745   
H39      H      0.516970000000     0.786760000000     0.867500000000     0.148697   
H40      H      0.440700000000     0.874960000000     0.763820000000     0.199933   
H41      H      0.479040000000     0.090220000000     0.776190000000     0.128367   
H42      H      0.479710000000     0.189080000000     0.862460000000     0.189109   
H43      H      0.506320000000     0.168220000000     0.085350000000     0.15081    
H44      H      0.428130000000     0.073400000000     0.191760000000     0.203938   
H45      H      0.518530000000     0.871720000000     0.767080000000     0.204974   
H46      H      0.469050000000     0.235260000000     0.924140000000     0.20628    
H47      H      0.505210000000     0.082970000000     0.184730000000     0.206424   
H48      H      0.490250000000     0.716230000000     0.032680000000     0.210414   
H49      H      0.626200000000     0.704810000000     0.965380000000     0.0348431  
H50      H      0.703930000000     0.625640000000     0.964210000000     0.0430961  
H51      H      0.846050000000     0.762390000000     0.979330000000     0.066589   
H52      H      0.772630000000     0.864010000000     0.028370000000     0.155138   
H53      H      0.837030000000     0.194170000000     0.981830000000     0.0432394  
H54      H      0.758990000000     0.114450000000     0.981810000000     0.0504047  
H55      H      0.615840000000     0.254430000000     0.976830000000     0.0612611  
H56      H      0.685110000000     0.358110000000     0.930930000000     0.153613   
H57      H      0.195170000000     0.836100000000     0.974350000000     0.0396295  
H58      H      0.115540000000     0.757960000000     0.973800000000     0.0424732  
H59      H      0.255300000000     0.615170000000     0.987220000000     0.0660027  
H60      H      0.356010000000     0.685140000000     0.035180000000     0.150977   
H61      H      0.247650000000     0.325770000000     0.970000000000     0.0387171  
H62      H      0.326760000000     0.247970000000     0.969040000000     0.0396674  
H63      H      0.188990000000     0.105660000000     0.974130000000     0.0666648  
H64      H      0.083090000000     0.176780000000     0.930100000000     0.155307   
H65      H      0.623810000000     0.969610000000     0.704430000000     0.0386382  
H66      H      0.701620000000     0.968130000000     0.624930000000     0.0391837  
H67      H      0.844100000000     0.973940000000     0.762390000000     0.0675818  
H68      H      0.774800000000     0.930740000000     0.869650000000     0.168876   
H69      H      0.193400000000     0.972620000000     0.840790000000     0.0397162  
H70      H      0.113400000000     0.972570000000     0.762610000000     0.0423116  
H71      H      0.253260000000     0.983060000000     0.619480000000     0.0647377  
H72      H      0.359250000000     0.938980000000     0.686000000000     0.145417   
H73      H      0.110840000000     0.975410000000     0.192430000000     0.0408269  
H74      H      0.189920000000     0.974400000000     0.111750000000     0.0434658  
H75      H      0.330400000000     0.951520000000     0.250210000000     0.0674466  
H76      H      0.256430000000     0.902890000000     0.350450000000     0.149729   
H77      H      0.699420000000     0.975510000000     0.333890000000     0.0344083  
H78      H      0.620270000000     0.975200000000     0.256510000000     0.0411396  
H79      H      0.759580000000     0.979570000000     0.112480000000     0.0680748  
H80      H      0.865650000000     0.935200000000     0.181290000000     0.163905   
H81      H      0.974220000000     0.190750000000     0.842080000000     0.0395021  
H82      H      0.974480000000     0.110910000000     0.763570000000     0.0435044  
H83      H      0.984810000000     0.251110000000     0.620880000000     0.0665407  
H84      H      0.031840000000     0.352020000000     0.690600000000     0.153161   
H85      H      0.981660000000     0.758920000000     0.841440000000     0.0401494  
H86      H      0.981550000000     0.839480000000     0.762460000000     0.0426835  
H87      H      0.958720000000     0.702060000000     0.622220000000     0.0680518  
H88      H      0.909440000000     0.603150000000     0.696320000000     0.149918   
H89      H      0.980050000000     0.699370000000     0.332280000000     0.03932    
H90      H      0.980400000000     0.620590000000     0.254720000000     0.0402324  
H91      H      0.980530000000     0.760150000000     0.111010000000     0.0657288  
H92      H      0.025970000000     0.864080000000     0.180320000000     0.157248   
H93      H      0.972220000000     0.191740000000     0.112880000000     0.047246   
H94      H      0.973780000000     0.111220000000     0.191870000000     0.0509157  
H95      H      0.960340000000     0.249620000000     0.333260000000     0.0660355  
H96      H      0.909570000000     0.350680000000     0.261850000000     0.149407   
N1       N      0.781280000000     0.687650000000     0.972140000000    -0.161756   
N2       N      0.689720000000     0.781150000000     0.973890000000    -0.201295   
N3       N      0.680920000000     0.177790000000     0.979180000000    -0.158329   
N4       N      0.772240000000     0.271340000000     0.978970000000    -0.196174   
N5       N      0.178780000000     0.680020000000     0.980220000000    -0.158095   
N6       N      0.272250000000     0.771520000000     0.981150000000    -0.195679   
N7       N      0.264220000000     0.170450000000     0.972020000000    -0.1615     
N8       N      0.170690000000     0.262180000000     0.972960000000    -0.199781   
N9       N      0.779120000000     0.971390000000     0.687290000000    -0.161839   
N10      N      0.687730000000     0.972940000000     0.781050000000    -0.200058   
N11      N      0.176650000000     0.977680000000     0.684560000000    -0.158373   
N12      N      0.270370000000     0.977550000000     0.775820000000    -0.195789   
N13      N      0.266450000000     0.964290000000     0.174670000000    -0.161619   
N14      N      0.174960000000     0.965240000000     0.268310000000    -0.20123    
N15      N      0.683300000000     0.977250000000     0.177980000000    -0.158431   
N16      N      0.776960000000     0.977390000000     0.269230000000    -0.196612   
N17      N      0.979280000000     0.174350000000     0.685680000000    -0.158045   
N18      N      0.979130000000     0.267760000000     0.777290000000    -0.196936   
N19      N      0.971030000000     0.777070000000     0.686050000000    -0.161521   
N20      N      0.970770000000     0.683470000000     0.777590000000    -0.200186   
N21      N      0.980230000000     0.683760000000     0.176270000000    -0.158402   
N22      N      0.980090000000     0.777100000000     0.267920000000    -0.196083   
N23      N      0.968460000000     0.174100000000     0.268790000000    -0.160974   
N24      N      0.966190000000     0.267670000000     0.177280000000    -0.200522   
O1       O      0.802420000000     0.975620000000     0.373350000000    -0.362912   
O2       O      0.880010000000     0.977770000000     0.299780000000    -0.332288   
O3       O      0.980590000000     0.148230000000     0.582120000000    -0.354566   
O4       O      0.976050000000     0.071190000000     0.656400000000    -0.343184   
O5       O      0.972630000000     0.147190000000     0.371780000000    -0.362924   
O6       O      0.973300000000     0.071200000000     0.298260000000    -0.347273   
O7       O      0.804550000000     0.970180000000     0.583680000000    -0.357146   
O8       O      0.881410000000     0.974940000000     0.656150000000    -0.35241    
O9       O      0.777100000000     0.063420000000     0.481100000000    -0.337847   
O10      O      0.758730000000     0.906700000000     0.478810000000    -0.512937   
O11      O      0.888800000000     0.174370000000     0.480850000000    -0.513549   
O12      O      0.044990000000     0.194220000000     0.472200000000    -0.323124   
O13      O      0.905770000000     0.046460000000     0.415030000000    -0.468542   
O14      O      0.905640000000     0.045280000000     0.539910000000    -0.610312   
O15      O      0.970400000000     0.803980000000     0.582930000000    -0.361478   
O16      O      0.977120000000     0.879700000000     0.656290000000    -0.352923   
O17      O      0.147530000000     0.970950000000     0.371350000000    -0.355404   
O18      O      0.071820000000     0.971790000000     0.297920000000    -0.353515   
O19      O      0.150030000000     0.979460000000     0.581210000000    -0.350086   
O20      O      0.073290000000     0.974540000000     0.655800000000    -0.344069   
O21      O      0.977860000000     0.802120000000     0.372230000000    -0.358232   
O22      O      0.978700000000     0.879970000000     0.298970000000    -0.334916   
O23      O      0.065120000000     0.777610000000     0.479650000000    -0.514612   
O24      O      0.909070000000     0.756140000000     0.477550000000    -0.324967   
O25      O      0.178900000000     0.890300000000     0.481670000000    -0.334313   
O26      O      0.193000000000     0.046130000000     0.470740000000    -0.511533   
O27      O      0.047210000000     0.904780000000     0.539230000000    -0.611426   
O28      O      0.047890000000     0.905590000000     0.414550000000    -0.47051    
O29      O      0.906100000000     0.904240000000     0.545240000000    -0.471308   
O30      O      0.047000000000     0.046710000000     0.409930000000    -0.620872   
O31      O      0.905700000000     0.904470000000     0.411820000000    -0.627791   
O32      O      0.047890000000     0.047160000000     0.543620000000    -0.475524   
O33      O      0.971190000000     0.370530000000     0.149310000000    -0.355695   
O34      O      0.969580000000     0.296910000000     0.073870000000    -0.350414   
O35      O      0.806030000000     0.584130000000     0.970860000000    -0.361534   
O36      O      0.883470000000     0.655770000000     0.976870000000    -0.351582   
O37      O      0.800540000000     0.374620000000     0.977380000000    -0.347894   
O38      O      0.876100000000     0.299110000000     0.979350000000    -0.346761   
O39      O      0.980400000000     0.579960000000     0.151080000000    -0.34997    
O40      O      0.978210000000     0.653660000000     0.073330000000    -0.343541   
O41      O      0.888770000000     0.481180000000     0.178090000000    -0.335642   
O42      O      0.045100000000     0.469570000000     0.194590000000    -0.510892   
O43      O      0.778250000000     0.481340000000     0.065450000000    -0.512467   
O44      O      0.756920000000     0.480510000000     0.908940000000    -0.322051   
O45      O      0.904480000000     0.414280000000     0.048690000000    -0.469059   
O46      O      0.906320000000     0.539150000000     0.047310000000    -0.61197    
O47      O      0.151460000000     0.576680000000     0.981900000000    -0.352936   
O48      O      0.075430000000     0.651960000000     0.976090000000    -0.345373   
O49      O      0.977210000000     0.371100000000     0.804680000000    -0.351452   
O50      O      0.976280000000     0.296580000000     0.881180000000    -0.346145   
O51      O      0.970930000000     0.580450000000     0.805570000000    -0.346087   
O52      O      0.977710000000     0.653930000000     0.880720000000    -0.354028   
O53      O      0.145930000000     0.366060000000     0.975890000000    -0.365177   
O54      O      0.068200000000     0.294690000000     0.975680000000    -0.341964   
O55      O      0.175190000000     0.473960000000     0.890230000000    -0.514006   
O56      O      0.194680000000     0.466310000000     0.046900000000    -0.324403   
O57      O      0.064750000000     0.478420000000     0.778110000000    -0.329596   
O58      O      0.908690000000     0.475580000000     0.759360000000    -0.51097    
O59      O      0.047680000000     0.536240000000     0.906490000000    -0.611897   
O60      O      0.046210000000     0.411270000000     0.907400000000    -0.470249   
O61      O      0.048710000000     0.540540000000     0.048630000000    -0.475728   
O62      O      0.903990000000     0.411070000000     0.906450000000    -0.628927   
O63      O      0.045420000000     0.407000000000     0.048330000000    -0.619686   
O64      O      0.906470000000     0.544270000000     0.906250000000    -0.473066   
O65      O      0.577680000000     0.150480000000     0.976880000000    -0.359789   
O66      O      0.652980000000     0.074360000000     0.979700000000    -0.340314   
O67      O      0.369580000000     0.964960000000     0.148320000000    -0.362329   
O68      O      0.296570000000     0.971210000000     0.071840000000    -0.351617   
O69      O      0.579460000000     0.974170000000     0.152550000000    -0.355873   
O70      O      0.653470000000     0.978440000000     0.075130000000    -0.34372    
O71      O      0.367800000000     0.145550000000     0.971280000000    -0.357288   
O72      O      0.295910000000     0.068010000000     0.975730000000    -0.349545   
O73      O      0.466090000000     0.173390000000     0.063630000000    -0.337178   
O74      O      0.474160000000     0.194090000000     0.906920000000    -0.51314    
O75      O      0.468060000000     0.060370000000     0.174670000000    -0.513632   
O76      O      0.476990000000     0.904060000000     0.197890000000    -0.325628   
O77      O      0.536330000000     0.046450000000     0.048410000000    -0.470912   
O78      O      0.411530000000     0.043340000000     0.046650000000    -0.606592   
O79      O      0.373690000000     0.980750000000     0.803560000000    -0.345006   
O80      O      0.298910000000     0.973210000000     0.879560000000    -0.347728   
O81      O      0.585820000000     0.805840000000     0.976260000000    -0.369927   
O82      O      0.657200000000     0.883480000000     0.976680000000    -0.342253   
O83      O      0.375560000000     0.799890000000     0.982800000000    -0.338821   
O84      O      0.300140000000     0.875360000000     0.976990000000    -0.347132   
O85      O      0.583930000000     0.975750000000     0.806380000000    -0.366144   
O86      O      0.655830000000     0.975950000000     0.883630000000    -0.338939   
O87      O      0.479370000000     0.891140000000     0.779130000000    -0.512458   
O88      O      0.480480000000     0.047890000000     0.758360000000    -0.315605   
O89      O      0.479740000000     0.775530000000     0.892790000000    -0.330663   
O90      O      0.483440000000     0.757370000000     0.049430000000    -0.513476   
O91      O      0.417140000000     0.904480000000     0.907140000000    -0.614861   
O92      O      0.541720000000     0.906930000000     0.908360000000    -0.468325   
O93      O      0.408710000000     0.046570000000     0.905370000000    -0.472777   
O94      O      0.543620000000     0.904240000000     0.049500000000    -0.62487    
O95      O      0.542170000000     0.048010000000     0.906030000000    -0.624913   
O96      O      0.410190000000     0.902320000000     0.049410000000    -0.474517   
O97      O      0.771150000000     0.856500000000     0.982850000000    -0.283958   
O98      O      0.688480000000     0.347180000000     0.975880000000    -0.283261   
O99      O      0.347900000000     0.688000000000     0.989770000000    -0.28302    
O100     O      0.094740000000     0.180570000000     0.974510000000    -0.281162   
O101     O      0.769650000000     0.975020000000     0.856670000000    -0.280967   
O102     O      0.345960000000     0.982990000000     0.691830000000    -0.276162   
O103     O      0.256790000000     0.948620000000     0.343100000000    -0.286447   
O104     O      0.853080000000     0.979560000000     0.185870000000    -0.278872   
O105     O      0.986560000000     0.343360000000     0.693480000000    -0.28947    
O106     O      0.955220000000     0.609280000000     0.695760000000    -0.282274   
O107     O      0.981240000000     0.853460000000     0.184830000000    -0.285447   
O108     O      0.955190000000     0.342570000000     0.259770000000    -0.28654    
Zr1      Zr     0.847910000000     0.973810000000     0.478220000000     1.296      
Zr2      Zr     0.977370000000     0.104080000000     0.477100000000     1.29737    
Zr3      Zr     0.975810000000     0.846960000000     0.477540000000     1.29613    
Zr4      Zr     0.105130000000     0.977420000000     0.476640000000     1.30142    
Zr5      Zr     0.976370000000     0.975730000000     0.359420000000     1.27068    
Zr6      Zr     0.977040000000     0.975370000000     0.595390000000     1.26138    
Zr7      Zr     0.977290000000     0.475370000000     0.105940000000     1.30089    
Zr8      Zr     0.847560000000     0.478310000000     0.976070000000     1.30119    
Zr9      Zr     0.104820000000     0.472510000000     0.978860000000     1.29577    
Zr10     Zr     0.975160000000     0.475700000000     0.849070000000     1.30643    
Zr11     Zr     0.973740000000     0.357290000000     0.977630000000     1.26696    
Zr12     Zr     0.978310000000     0.593400000000     0.977070000000     1.26086    
Zr13     Zr     0.473560000000     0.103830000000     0.974880000000     1.29655    
Zr14     Zr     0.474980000000     0.972180000000     0.106300000000     1.29628    
Zr15     Zr     0.478110000000     0.978380000000     0.848910000000     1.3002     
Zr16     Zr     0.479400000000     0.846720000000     0.980370000000     1.30032    
Zr17     Zr     0.594200000000     0.977540000000     0.978660000000     1.27217    
Zr18     Zr     0.358400000000     0.973010000000     0.976470000000     1.25975    


