data_structure

_audit_creation_method RASPA-1.0
_audit_creation_date 2023-6-5
_audit_author_name 'Poobodin Mano'

_cell_length_a    21.364
_cell_length_b    21.1873
_cell_length_c    21.4543
_cell_angle_alpha 89.2564
_cell_angle_beta  89.2563
_cell_angle_gamma 89.2563
_cell_volume      9708.76

_symmetry_cell_setting          triclinic
_symmetry_space_group_name_Hall 'P 1'
_symmetry_space_group_name_H-M  'P 1'
_symmetry_Int_Tables_number     1

_symmetry_equiv_pos_as_xyz 'x,y,z'

loop_
_atom_site_label
_atom_site_type_symbol
_atom_site_fract_x
_atom_site_fract_y
_atom_site_fract_z
_atom_site_charge
C1       C      0.823150000000     0.967380000000     0.312450000000     0.372138   
C2       C      0.966780000000     0.133660000000     0.637240000000     0.386627   
C3       C      0.943820000000     0.133380000000     0.312490000000     0.384962   
C4       C      0.822750000000     0.961140000000     0.638400000000     0.381334   
C5       C      0.982840000000     0.821450000000     0.635210000000     0.387766   
C6       C      0.131260000000     0.992360000000     0.310600000000     0.387908   
C7       C      0.129760000000     0.995530000000     0.635510000000     0.372854   
C8       C      0.985640000000     0.827790000000     0.311440000000     0.381543   
C9       C      0.953560000000     0.317420000000     0.132650000000     0.390152   
C10      C      0.834220000000     0.650760000000     0.950390000000     0.378638   
C11      C      0.818660000000     0.322400000000     0.985820000000     0.3822     
C12      C      0.985830000000     0.642680000000     0.126360000000     0.393961   
C13      C      0.140620000000     0.632780000000     0.984860000000     0.387406   
C14      C      0.969040000000     0.312780000000     0.825270000000     0.375493   
C15      C      0.001420000000     0.640270000000     0.820730000000     0.384633   
C16      C      0.122580000000     0.302710000000     0.992170000000     0.378187   
C17      C      0.633510000000     0.140530000000     0.980570000000     0.385251   
C18      C      0.308550000000     0.965430000000     0.124300000000     0.379638   
C19      C      0.634740000000     0.973220000000     0.131970000000     0.380963   
C20      C      0.311470000000     0.135860000000     0.963820000000     0.393607   
C21      C      0.314000000000     0.989710000000     0.819460000000     0.385156   
C22      C      0.644200000000     0.828570000000     0.962750000000     0.388354   
C23      C      0.317990000000     0.821760000000     0.965430000000     0.377524   
C24      C      0.642470000000     0.988780000000     0.821940000000     0.386256   
C25      C      0.808420000000     0.765970000000     0.945490000000    -0.0123376  
C26      C      0.734790000000     0.687990000000     0.904070000000    -0.0370209  
C27      C      0.754640000000     0.799230000000     0.980800000000    -0.0146592  
C28      C      0.679160000000     0.717550000000     0.940280000000     0.0918795  
C29      C      0.788720000000     0.211140000000     0.007240000000    -0.00747941 
C30      C      0.708290000000     0.296980000000     0.010440000000    -0.0319261  
C31      C      0.744700000000     0.169210000000     0.970990000000    -0.0173349  
C32      C      0.662230000000     0.255930000000     0.974250000000     0.0879704  
C33      C      0.206250000000     0.790740000000     0.957750000000    -0.0147531  
C34      C      0.291660000000     0.709820000000     0.947750000000    -0.0362333  
C35      C      0.168570000000     0.744810000000     0.998930000000    -0.0146524  
C36      C      0.254880000000     0.663760000000     0.990560000000     0.0887002  
C37      C      0.221180000000     0.258160000000     0.034080000000    -0.0124777  
C38      C      0.152180000000     0.192050000000     0.967290000000    -0.0405023  
C39      C      0.277280000000     0.242960000000     0.991780000000    -0.0147769  
C40      C      0.208920000000     0.180550000000     0.923630000000     0.0948446  
C41      C      0.712490000000     0.946410000000     0.673250000000    -0.0122734  
C42      C      0.797690000000     0.949150000000     0.751540000000    -0.0347952  
C43      C      0.674420000000     0.994370000000     0.710840000000    -0.0165694  
C44      C      0.758110000000     0.995560000000     0.791680000000     0.0878022  
C45      C      0.236920000000     0.023080000000     0.667930000000    -0.010557   
C46      C      0.152450000000     0.008190000000     0.747670000000    -0.0347487  
C47      C      0.283720000000     0.988020000000     0.709350000000    -0.0176604  
C48      C      0.200030000000     0.976760000000     0.793310000000     0.0900022  
C49      C      0.194910000000     0.960460000000     0.153350000000    -0.019083   
C50      C      0.276940000000     0.944320000000     0.233780000000    -0.0391603  
C51      C      0.158380000000     0.004300000000     0.198080000000    -0.00670142 
C52      C      0.245180000000     0.994060000000     0.275380000000     0.0902965  
C53      C      0.795920000000     0.961710000000     0.200010000000    -0.0116246  
C54      C      0.718920000000     0.930940000000     0.281930000000    -0.0370462  
C55      C      0.743430000000     0.993290000000     0.161860000000    -0.0189467  
C56      C      0.664880000000     0.962470000000     0.246250000000     0.0840565  
C57      C      0.955550000000     0.199760000000     0.798710000000    -0.0114232  
C58      C      0.930170000000     0.284570000000     0.721880000000    -0.0358993  
C59      C      0.985760000000     0.159690000000     0.747010000000    -0.0163558  
C60      C      0.961660000000     0.247430000000     0.668480000000     0.0888395  
C61      C      0.015970000000     0.753370000000     0.790870000000    -0.0117099  
C62      C      0.025170000000     0.669510000000     0.711010000000    -0.0338053  
C63      C      0.974130000000     0.792940000000     0.747270000000    -0.0154615  
C64      C      0.979750000000     0.706060000000     0.668300000000     0.0881702  
C65      C      0.991320000000     0.804130000000     0.199220000000    -0.0135129  
C66      C      0.970200000000     0.717870000000     0.280720000000    -0.038806   
C67      C      0.969810000000     0.754400000000     0.152900000000    -0.00438628 
C68      C      0.001970000000     0.672050000000     0.235730000000     0.0971698  
C69      C      0.921020000000     0.158090000000     0.201480000000    -0.0113168  
C70      C      0.898050000000     0.237200000000     0.282420000000    -0.03411    
C71      C      0.957680000000     0.205380000000     0.162000000000    -0.0140132  
C72      C      0.930880000000     0.289660000000     0.243980000000     0.0900263  
H1       H      0.871870000000     0.068470000000     0.564500000000     0.212584   
H2       H      0.064050000000     0.087920000000     0.379430000000     0.205575   
H3       H      0.080300000000     0.890070000000     0.562140000000     0.209645   
H4       H      0.887600000000     0.876670000000     0.382560000000     0.20774    
H5       H      0.073130000000     0.189550000000     0.483180000000     0.134453   
H6       H      0.178990000000     0.112700000000     0.462960000000     0.193604   
H7       H      0.172320000000     0.879430000000     0.445250000000     0.161263   
H8       H      0.107010000000     0.786170000000     0.508710000000     0.21209    
H9       H      0.884020000000     0.765230000000     0.473540000000     0.13025    
H10      H      0.771400000000     0.850000000000     0.472550000000     0.192154   
H11      H      0.773680000000     0.074840000000     0.436380000000     0.153248   
H12      H      0.839880000000     0.169380000000     0.498730000000     0.210993   
H13      H      0.093480000000     0.766340000000     0.434940000000     0.219262   
H14      H      0.719740000000     0.909890000000     0.477660000000     0.209032   
H15      H      0.885230000000     0.227450000000     0.471160000000     0.226986   
H16      H      0.231390000000     0.054180000000     0.473310000000     0.221436   
H17      H      0.881160000000     0.575650000000     0.064860000000     0.208797   
H18      H      0.881160000000     0.389180000000     0.877950000000     0.207187   
H19      H      0.085720000000     0.559570000000     0.884740000000     0.211349   
H20      H      0.063590000000     0.378600000000     0.081370000000     0.206743   
H21      H      0.783590000000     0.486480000000     0.853340000000     0.131378   
H22      H      0.879920000000     0.481350000000     0.755590000000     0.196226   
H23      H      0.092230000000     0.421000000000     0.787540000000     0.156574   
H24      H      0.183210000000     0.492250000000     0.867750000000     0.213346   
H25      H      0.176210000000     0.464790000000     0.098680000000     0.133519   
H26      H      0.078250000000     0.463620000000     0.195640000000     0.199481   
H27      H      0.850990000000     0.462650000000     0.157380000000     0.160943   
H28      H      0.758460000000     0.544340000000     0.058800000000     0.206073   
H29      H      0.212570000000     0.426150000000     0.900020000000     0.215431   
H30      H      0.013050000000     0.473970000000     0.238650000000     0.224082   
H31      H      0.757540000000     0.466560000000     0.073140000000     0.212344   
H32      H      0.946180000000     0.487090000000     0.713470000000     0.218352   
H33      H      0.380830000000     0.071110000000     0.071900000000     0.211014   
H34      H      0.569870000000     0.878380000000     0.067650000000     0.210755   
H35      H      0.391740000000     0.887800000000     0.872940000000     0.209912   
H36      H      0.568650000000     0.084650000000     0.881770000000     0.206691   
H37      H      0.471230000000     0.853590000000     0.167320000000     0.133686   
H38      H      0.492240000000     0.762430000000     0.080760000000     0.195971   
H39      H      0.507490000000     0.801030000000     0.850020000000     0.158449   
H40      H      0.439950000000     0.888680000000     0.756010000000     0.201877   
H41      H      0.482790000000     0.106610000000     0.778250000000     0.129981   
H42      H      0.483900000000     0.205410000000     0.872540000000     0.195932   
H43      H      0.505090000000     0.166960000000     0.092330000000     0.160694   
H44      H      0.502910000000     0.078590000000     0.187060000000     0.215464   
H45      H      0.518250000000     0.887670000000     0.755800000000     0.209518   
H46      H      0.464940000000     0.246520000000     0.936330000000     0.224358   
H47      H      0.426300000000     0.065640000000     0.196810000000     0.210819   
H48      H      0.477170000000     0.717020000000     0.019590000000     0.22314    
H49      H      0.756240000000     0.783340000000     0.030370000000     0.0412441  
H50      H      0.852490000000     0.771890000000     0.971640000000     0.0474487  
H51      H      0.674440000000     0.690670000000     0.985030000000     0.0347276  
H52      H      0.726180000000     0.637060000000     0.896720000000     0.0740188  
H53      H      0.763890000000     0.850710000000     0.980340000000     0.06039    
H54      H      0.814190000000     0.789520000000     0.899160000000     0.0524609  
H55      H      0.738280000000     0.710480000000     0.857050000000     0.06762    
H56      H      0.756290000000     0.174210000000     0.920490000000     0.047611   
H57      H      0.837710000000     0.198910000000     0.993620000000     0.0490956  
H58      H      0.668660000000     0.268510000000     0.924000000000     0.0360734  
H59      H      0.698760000000     0.347510000000     0.999260000000     0.0704804  
H60      H      0.754870000000     0.119390000000     0.984680000000     0.0560283  
H61      H      0.783000000000     0.199940000000     0.057780000000     0.0455226  
H62      H      0.700250000000     0.290400000000     0.061390000000     0.0673634  
H63      H      0.178310000000     0.755600000000     0.048440000000     0.0525686  
H64      H      0.195290000000     0.839740000000     0.972670000000     0.0595853  
H65      H      0.269570000000     0.673360000000     0.039160000000     0.0445863  
H66      H      0.342590000000     0.700610000000     0.953380000000     0.073499   
H67      H      0.118020000000     0.754870000000     0.991630000000     0.0535318  
H68      H      0.190570000000     0.786060000000     0.908810000000     0.0497587  
H69      H      0.280540000000     0.700420000000     0.898270000000     0.0659624  
H70      H      0.281990000000     0.281340000000     0.956210000000     0.0476184  
H71      H      0.226840000000     0.305580000000     0.054710000000     0.0482171  
H72      H      0.210240000000     0.223840000000     0.893200000000     0.0385462  
H73      H      0.108460000000     0.192810000000     0.939680000000     0.0710959  
H74      H      0.320110000000     0.242460000000     0.020740000000     0.051382   
H75      H      0.220950000000     0.223160000000     0.073170000000     0.0407977  
H76      H      0.149630000000     0.153180000000     0.002520000000     0.0659746  
H77      H      0.686040000000     0.042450000000     0.693170000000     0.0471942  
H78      H      0.700830000000     0.952380000000     0.623190000000     0.0470784  
H79      H      0.771910000000     0.043870000000     0.776040000000     0.0367164  
H80      H      0.848210000000     0.958310000000     0.758370000000     0.0698001  
H81      H      0.624140000000     0.986710000000     0.701250000000     0.0496883  
H82      H      0.698130000000     0.898220000000     0.688260000000     0.0461991  
H83      H      0.788890000000     0.899930000000     0.767620000000     0.065066   
H84      H      0.285250000000     0.937610000000     0.695540000000     0.0426732  
H85      H      0.250680000000     0.015170000000     0.618480000000     0.0495105  
H86      H      0.195430000000     0.925020000000     0.785680000000     0.0357968  
H87      H      0.105890000000     0.986740000000     0.756450000000     0.0670422  
H88      H      0.330720000000     0.007870000000     0.699140000000     0.0539034  
H89      H      0.240520000000     0.074500000000     0.676830000000     0.0501338  
H90      H      0.147540000000     0.059310000000     0.757080000000     0.0769791  
H91      H      0.169290000000     0.053840000000     0.184590000000     0.039165   
H92      H      0.186410000000     0.976280000000     0.104560000000     0.0535509  
H93      H      0.262850000000     0.040880000000     0.259170000000     0.0341228  
H94      H      0.327970000000     0.942750000000     0.243030000000     0.078365   
H95      H      0.107540000000     0.997980000000     0.190380000000     0.0468677  
H96      H      0.175830000000     0.912100000000     0.158930000000     0.0499273  
H97      H      0.258130000000     0.896960000000     0.245980000000     0.0707113  
H98      H      0.744200000000     0.044870000000     0.170790000000     0.046353   
H99      H      0.840050000000     0.987760000000     0.191070000000     0.0455299  
H100     H      0.658720000000     0.010620000000     0.265900000000     0.0396024  
H101     H      0.707380000000     0.932490000000     0.332580000000     0.0586966  
H102     H      0.755460000000     0.987110000000     0.111740000000     0.0513402  
H103     H      0.803040000000     0.912700000000     0.183090000000     0.0413779  
H104     H      0.721580000000     0.880180000000     0.269220000000     0.0573832  
H105     H      0.037390000000     0.165080000000     0.749330000000     0.0538753  
H106     H      0.979970000000     0.189240000000     0.843200000000     0.0530468  
H107     H      0.010620000000     0.264540000000     0.664050000000     0.041569   
H108     H      0.933350000000     0.335880000000     0.711230000000     0.0678208  
H109     H      0.975780000000     0.109340000000     0.757840000000     0.0563919  
H110     H      0.905890000000     0.185480000000     0.804660000000     0.0470097  
H111     H      0.879490000000     0.273350000000     0.724300000000     0.0627976  
H112     H      0.924520000000     0.784610000000     0.761010000000     0.0463438  
H113     H      0.002340000000     0.763520000000     0.839930000000     0.0513884  
H114     H      0.931690000000     0.690750000000     0.681940000000     0.0398294  
H115     H      0.021890000000     0.618140000000     0.702170000000     0.0720284  
H116     H      0.983550000000     0.843560000000     0.755600000000     0.0523659  
H117     H      0.065170000000     0.768710000000     0.783750000000     0.045095   
H118     H      0.074010000000     0.683620000000     0.699590000000     0.0639151  
H119     H      0.917850000000     0.756410000000     0.150570000000     0.0373257  
H120     H      0.964290000000     0.848470000000     0.190130000000     0.0449373  
H121     H      0.981160000000     0.625420000000     0.247900000000     0.038466   
H122     H      0.918660000000     0.711630000000     0.278330000000     0.0487258  
H123     H      0.987830000000     0.767620000000     0.105700000000     0.0483163  
H124     H      0.041140000000     0.815720000000     0.189760000000     0.0601591  
H125     H      0.984100000000     0.704500000000     0.328950000000     0.0672301  
H126     H      0.008490000000     0.196990000000     0.169800000000     0.0429935  
H127     H      0.939430000000     0.109830000000     0.191950000000     0.0475393  
H128     H      0.977630000000     0.296350000000     0.265140000000     0.0356503  
H129     H      0.901240000000     0.248110000000     0.332780000000     0.068116   
H130     H      0.948750000000     0.195080000000     0.112220000000     0.0498249  
H131     H      0.871270000000     0.160030000000     0.186750000000     0.0436497  
H132     H      0.847400000000     0.236670000000     0.271170000000     0.0669153  
N1       N      0.691830000000     0.784500000000     0.956350000000    -0.163542   
N2       N      0.793560000000     0.699330000000     0.936450000000    -0.159064   
N3       N      0.620390000000     0.710840000000     0.905410000000    -0.0215283  
N4       N      0.678100000000     0.187120000000     0.980750000000    -0.16543    
N5       N      0.773250000000     0.278280000000     0.996510000000    -0.160217   
N6       N      0.596770000000     0.271470000000     0.992000000000    -0.0237837  
N7       N      0.186470000000     0.678020000000     0.987510000000    -0.163533   
N8       N      0.273620000000     0.775800000000     0.960550000000    -0.156653   
N9       N      0.271160000000     0.597330000000     0.976780000000    -0.0181508  
N10      N      0.266790000000     0.182340000000     0.960450000000    -0.170404   
N11      N      0.162460000000     0.252350000000     0.999360000000    -0.160768   
N12      N      0.204640000000     0.125700000000     0.881790000000    -0.0264251  
N13      N      0.690090000000     0.989790000000     0.777850000000    -0.165965   
N14      N      0.779500000000     0.954040000000     0.685650000000    -0.158904   
N15      N      0.772700000000     0.989260000000     0.858620000000    -0.0227139  
N16      N      0.266520000000     0.991360000000     0.776270000000    -0.163043   
N17      N      0.172580000000     0.003030000000     0.682080000000    -0.155598   
N18      N      0.184570000000     0.990290000000     0.860040000000    -0.0176669  
N19      N      0.176420000000     0.994120000000     0.264100000000    -0.169019   
N20      N      0.262030000000     0.958440000000     0.168360000000    -0.15754    
N21      N      0.262570000000     0.985450000000     0.341470000000    -0.0252764  
N22      N      0.679840000000     0.969950000000     0.177860000000    -0.160256   
N23      N      0.779560000000     0.959260000000     0.266700000000    -0.15869    
N24      N      0.609200000000     0.924480000000     0.262200000000    -0.0282441  
N25      N      0.965500000000     0.178470000000     0.683410000000    -0.163912   
N26      N      0.957420000000     0.267190000000     0.782250000000    -0.158753   
N27      N      0.929760000000     0.260990000000     0.608880000000    -0.0207175  
N28      N      0.982840000000     0.775160000000     0.681020000000    -0.166209   
N29      N      0.011930000000     0.685880000000     0.776150000000    -0.159659   
N30      N      0.990190000000     0.689590000000     0.602170000000    -0.0182302  
N31      N      0.989000000000     0.689240000000     0.169880000000    -0.164467   
N32      N      0.984080000000     0.784130000000     0.265060000000    -0.152605   
N33      N      0.069790000000     0.667300000000     0.247590000000    -0.0268256  
N34      N      0.942430000000     0.271860000000     0.177520000000    -0.166106   
N35      N      0.924720000000     0.175200000000     0.267280000000    -0.159862   
N36      N      0.895580000000     0.349960000000     0.248910000000    -0.0227842  
O1       O      0.804140000000     0.964040000000     0.370120000000    -0.360912   
O2       O      0.881130000000     0.975160000000     0.296030000000    -0.346347   
O3       O      0.967310000000     0.152910000000     0.579760000000    -0.340557   
O4       O      0.968640000000     0.074510000000     0.653290000000    -0.347792   
O5       O      0.943990000000     0.152290000000     0.369690000000    -0.352782   
O6       O      0.958350000000     0.076710000000     0.295970000000    -0.3562     
O7       O      0.803330000000     0.959280000000     0.581450000000    -0.353285   
O8       O      0.880590000000     0.968860000000     0.653180000000    -0.351393   
O9       O      0.770350000000     0.054200000000     0.477940000000    -0.341842   
O10      O      0.762560000000     0.894730000000     0.475350000000    -0.513341   
O11      O      0.879960000000     0.183690000000     0.483150000000    -0.506992   
O12      O      0.032560000000     0.203400000000     0.465490000000    -0.326158   
O13      O      0.899750000000     0.046670000000     0.412940000000    -0.466686   
O14      O      0.899700000000     0.045030000000     0.537220000000    -0.611165   
O15      O      0.981870000000     0.804220000000     0.577800000000    -0.341174   
O16      O      0.982970000000     0.880100000000     0.651630000000    -0.350611   
O17      O      0.149060000000     0.994200000000     0.367830000000    -0.344837   
O18      O      0.073010000000     0.989470000000     0.294990000000    -0.352157   
O19      O      0.149220000000     0.000010000000     0.578110000000    -0.346596   
O20      O      0.071890000000     0.986080000000     0.651300000000    -0.348233   
O21      O      0.983680000000     0.807450000000     0.368620000000    -0.360807   
O22      O      0.986920000000     0.886870000000     0.295760000000    -0.352301   
O23      O      0.081050000000     0.788640000000     0.472200000000    -0.512467   
O24      O      0.928650000000     0.752030000000     0.473240000000    -0.305721   
O25      O      0.183810000000     0.909150000000     0.478310000000    -0.327058   
O26      O      0.188450000000     0.068360000000     0.469160000000    -0.511493   
O27      O      0.052660000000     0.914260000000     0.535420000000    -0.613067   
O28      O      0.053510000000     0.915960000000     0.410880000000    -0.466175   
O29      O      0.910840000000     0.901720000000     0.541520000000    -0.474118   
O30      O      0.041500000000     0.059460000000     0.406900000000    -0.621778   
O31      O      0.911260000000     0.904160000000     0.408720000000    -0.62573    
O32      O      0.041190000000     0.057600000000     0.540710000000    -0.475206   
O33      O      0.957400000000     0.375310000000     0.150260000000    -0.351137   
O34      O      0.960140000000     0.300200000000     0.075240000000    -0.350671   
O35      O      0.812990000000     0.593880000000     0.948210000000    -0.357911   
O36      O      0.891710000000     0.663870000000     0.962990000000    -0.350259   
O37      O      0.801810000000     0.381380000000     0.981180000000    -0.353509   
O38      O      0.876070000000     0.303010000000     0.983060000000    -0.352094   
O39      O      0.987440000000     0.584780000000     0.146170000000    -0.346799   
O40      O      0.980690000000     0.658780000000     0.068260000000    -0.353808   
O41      O      0.880670000000     0.495180000000     0.170670000000    -0.329439   
O42      O      0.033510000000     0.470590000000     0.198380000000    -0.509648   
O43      O      0.773310000000     0.502190000000     0.049450000000    -0.515174   
O44      O      0.763510000000     0.481770000000     0.894970000000    -0.320391   
O45      O      0.901390000000     0.420540000000     0.043820000000    -0.466794   
O46      O      0.906850000000     0.546200000000     0.041490000000    -0.612615   
O47      O      0.156730000000     0.573670000000     0.989020000000    -0.331589   
O48      O      0.083170000000     0.651740000000     0.978920000000    -0.348195   
O49      O      0.972860000000     0.370570000000     0.805260000000    -0.363639   
O50      O      0.971550000000     0.296580000000     0.883620000000    -0.348355   
O51      O      0.997070000000     0.582370000000     0.802640000000    -0.35555    
O52      O      0.997870000000     0.657070000000     0.878340000000    -0.353566   
O53      O      0.144890000000     0.359010000000     0.998180000000    -0.360358   
O54      O      0.064730000000     0.291210000000     0.980750000000    -0.353709   
O55      O      0.182800000000     0.460880000000     0.900830000000    -0.509782   
O56      O      0.195930000000     0.465040000000     0.056660000000    -0.309644   
O57      O      0.078800000000     0.465670000000     0.782600000000    -0.336674   
O58      O      0.925070000000     0.483060000000     0.753420000000    -0.51355    
O59      O      0.056750000000     0.534550000000     0.909220000000    -0.610397   
O60      O      0.051420000000     0.409070000000     0.910590000000    -0.46702    
O61      O      0.049800000000     0.541780000000     0.049920000000    -0.468271   
O62      O      0.908060000000     0.414670000000     0.902950000000    -0.625411   
O63      O      0.042150000000     0.406990000000     0.052960000000    -0.62402    
O64      O      0.915200000000     0.548870000000     0.899490000000    -0.474316   
O65      O      0.575460000000     0.157620000000     0.978140000000    -0.351002   
O66      O      0.651620000000     0.081820000000     0.981160000000    -0.347053   
O67      O      0.365800000000     0.962820000000     0.143270000000    -0.357819   
O68      O      0.293300000000     0.973540000000     0.066530000000    -0.350073   
O69      O      0.576520000000     0.971600000000     0.148760000000    -0.333348   
O70      O      0.652540000000     0.978000000000     0.073970000000    -0.345705   
O71      O      0.368260000000     0.154420000000     0.970100000000    -0.361742   
O72      O      0.295220000000     0.077130000000     0.962900000000    -0.325977   
O73      O      0.464610000000     0.173450000000     0.071090000000    -0.331337   
O74      O      0.473950000000     0.206630000000     0.916580000000    -0.508325   
O75      O      0.465920000000     0.055210000000     0.177000000000    -0.509694   
O76      O      0.469820000000     0.895160000000     0.187880000000    -0.299136   
O77      O      0.535220000000     0.048770000000     0.048420000000    -0.471105   
O78      O      0.409280000000     0.046830000000     0.045990000000    -0.61295    
O79      O      0.371740000000     0.995150000000     0.800060000000    -0.352464   
O80      O      0.299010000000     0.981130000000     0.877210000000    -0.333      
O81      O      0.587030000000     0.809030000000     0.962750000000    -0.344076   
O82      O      0.658730000000     0.887260000000     0.968960000000    -0.342194   
O83      O      0.376100000000     0.803790000000     0.966960000000    -0.352281   
O84      O      0.299920000000     0.880380000000     0.966910000000    -0.339629   
O85      O      0.585310000000     0.989580000000     0.802310000000    -0.360356   
O86      O      0.656490000000     0.987530000000     0.880330000000    -0.332266   
O87      O      0.478950000000     0.905270000000     0.770680000000    -0.517477   
O88      O      0.481060000000     0.064850000000     0.758190000000    -0.323835   
O89      O      0.480070000000     0.780430000000     0.881520000000    -0.320361   
O90      O      0.483690000000     0.758270000000     0.036900000000    -0.514791   
O91      O      0.417140000000     0.912710000000     0.899990000000    -0.614225   
O92      O      0.542360000000     0.914960000000     0.901530000000    -0.465023   
O93      O      0.408600000000     0.056010000000     0.904390000000    -0.472462   
O94      O      0.542890000000     0.905590000000     0.043080000000    -0.625501   
O95      O      0.542060000000     0.057030000000     0.906230000000    -0.623186   
O96      O      0.408830000000     0.903370000000     0.041130000000    -0.474858   
O97      O      0.626370000000     0.736730000000     0.848730000000    -0.106207   
O98      O      0.607980000000     0.649890000000     0.898500000000    -0.102747   
O99      O      0.588990000000     0.266080000000     0.053570000000    -0.104908   
O100     O      0.583550000000     0.331030000000     0.975800000000    -0.109985   
O101     O      0.265740000000     0.586790000000     0.915980000000    -0.109393   
O102     O      0.330560000000     0.585880000000     0.991830000000    -0.102559   
O103     O      0.173460000000     0.076860000000     0.910690000000    -0.0611206  
O104     O      0.173240000000     0.145750000000     0.831470000000    -0.114402   
O105     O      0.771140000000     0.928770000000     0.876370000000    -0.104289   
O106     O      0.830500000000     0.009600000000     0.868050000000    -0.115362   
O107     O      0.147760000000     0.042730000000     0.866390000000    -0.064385   
O108     O      0.152860000000     0.942030000000     0.884580000000    -0.111001   
O109     O      0.258710000000     0.924800000000     0.358250000000    -0.101286   
O110     O      0.321820000000     0.002530000000     0.348540000000    -0.109073   
O111     O      0.601960000000     0.877270000000     0.222610000000    -0.105949   
O112     O      0.557400000000     0.960100000000     0.263880000000    -0.0910224  
O113     O      0.869180000000     0.247380000000     0.614110000000    -0.112129   
O114     O      0.934160000000     0.322140000000     0.594500000000    -0.108908   
O115     O      0.050830000000     0.693230000000     0.587330000000    -0.106149   
O116     O      0.972850000000     0.630240000000     0.593330000000    -0.10414    
O117     O      0.099490000000     0.715560000000     0.220760000000    -0.0985459  
O118     O      0.092550000000     0.614720000000     0.222060000000    -0.0978948  
O119     O      0.838090000000     0.343370000000     0.226710000000    -0.108163   
O120     O      0.890160000000     0.366430000000     0.308470000000    -0.10773    
Zr1      Zr     0.847420000000     0.968500000000     0.475650000000     1.29418    
Zr2      Zr     0.966910000000     0.110620000000     0.474300000000     1.30235    
Zr3      Zr     0.985670000000     0.850700000000     0.473620000000     1.30627    
Zr4      Zr     0.104960000000     0.993020000000     0.473300000000     1.29852    
Zr5      Zr     0.976640000000     0.982040000000     0.356640000000     1.26493    
Zr6      Zr     0.976080000000     0.978670000000     0.591860000000     1.26037    
Zr7      Zr     0.973040000000     0.479750000000     0.104620000000     1.30941    
Zr8      Zr     0.849930000000     0.485900000000     0.967520000000     1.29676    
Zr9      Zr     0.108070000000     0.469090000000     0.985590000000     1.29982    
Zr10     Zr     0.985050000000     0.476250000000     0.847650000000     1.29619    
Zr11     Zr     0.973210000000     0.359260000000     0.978260000000     1.26851    
Zr12     Zr     0.984580000000     0.596490000000     0.973940000000     1.26244    
Zr13     Zr     0.472660000000     0.110160000000     0.977270000000     1.31029    
Zr14     Zr     0.472420000000     0.971380000000     0.102170000000     1.30592    
Zr15     Zr     0.478220000000     0.989760000000     0.844930000000     1.29294    
Zr16     Zr     0.479800000000     0.850720000000     0.970430000000     1.30508    
Zr17     Zr     0.594510000000     0.982670000000     0.975890000000     1.26572    
Zr18     Zr     0.357440000000     0.979120000000     0.972060000000     1.2668     


