data_structure

_audit_creation_method RASPA-1.0
_audit_creation_date 2023-6-5
_audit_author_name 'Poobodin Mano'

_cell_length_a    27.4929
_cell_length_b    27.5166
_cell_length_c    27.5272
_cell_angle_alpha 89.2565
_cell_angle_beta  89.2563
_cell_angle_gamma 89.2563
_cell_volume      20819.4

_symmetry_cell_setting          triclinic
_symmetry_space_group_name_Hall 'P 1'
_symmetry_space_group_name_H-M  'P 1'
_symmetry_Int_Tables_number     1

_symmetry_equiv_pos_as_xyz 'x,y,z'

loop_
_atom_site_label
_atom_site_type_symbol
_atom_site_fract_x
_atom_site_fract_y
_atom_site_fract_z
_atom_site_charge
C1       C      0.859150000000     0.976310000000     0.358330000000     0.390143   
C2       C      0.979810000000     0.101440000000     0.606680000000     0.379651   
C3       C      0.969960000000     0.097640000000     0.353450000000     0.402135   
C4       C      0.864990000000     0.974230000000     0.611780000000     0.39974    
C5       C      0.986960000000     0.861350000000     0.610090000000     0.400115   
C6       C      0.099870000000     0.981500000000     0.352870000000     0.398309   
C7       C      0.103600000000     0.988440000000     0.606010000000     0.381177   
C8       C      0.986730000000     0.858030000000     0.357010000000     0.37568    
C9       C      0.983950000000     0.350600000000     0.099450000000     0.38785    
C10      C      0.863420000000     0.608750000000     0.989020000000     0.401622   
C11      C      0.858520000000     0.355890000000     0.987770000000     0.38498    
C12      C      0.992330000000     0.603800000000     0.103850000000     0.387955   
C13      C      0.103440000000     0.604190000000     0.977810000000     0.379069   
C14      C      0.973810000000     0.356110000000     0.859720000000     0.389414   
C15      C      0.972300000000     0.609550000000     0.865270000000     0.389222   
C16      C      0.098520000000     0.350840000000     0.969210000000     0.400176   
C17      C      0.605490000000     0.101530000000     0.993210000000     0.377816   
C18      C      0.352140000000     0.963720000000     0.098270000000     0.386538   
C19      C      0.605640000000     0.972050000000     0.104150000000     0.376889   
C20      C      0.351820000000     0.096950000000     0.985760000000     0.389144   
C21      C      0.357570000000     0.988040000000     0.859370000000     0.390684   
C22      C      0.611710000000     0.863620000000     0.971900000000     0.38886    
C23      C      0.358020000000     0.857290000000     0.972750000000     0.391703   
C24      C      0.610590000000     0.988880000000     0.864750000000     0.390155   
C25      C      0.781520000000     0.637650000000     0.001740000000     0.245906   
C26      C      0.843130000000     0.691590000000     0.974060000000     0.0813431  
C27      C      0.747020000000     0.674990000000     0.998490000000    -0.163535   
C28      C      0.675930000000     0.747460000000     0.959650000000    -0.0800649  
C29      C      0.809050000000     0.729210000000     0.969280000000    -0.106288   
C30      C      0.722680000000     0.759420000000     0.974630000000     0.021217   
C31      C      0.760200000000     0.720870000000     0.980830000000     0.0687975  
C32      C      0.639580000000     0.782940000000     0.958030000000     0.066756   
C33      C      0.695400000000     0.842880000000     0.981930000000     0.0663191  
C34      C      0.732510000000     0.807990000000     0.984890000000    -0.0796774  
C35      C      0.775330000000     0.330900000000     0.978260000000     0.234131   
C36      C      0.836100000000     0.273060000000     0.000190000000     0.0766767  
C37      C      0.740020000000     0.294600000000     0.980040000000    -0.153611   
C38      C      0.725630000000     0.159060000000     0.985040000000    -0.0782118  
C39      C      0.801300000000     0.236260000000     0.003030000000    -0.100171   
C40      C      0.714170000000     0.207830000000     0.995090000000     0.0213121  
C41      C      0.752290000000     0.246580000000     0.992940000000     0.0623889  
C42      C      0.689180000000     0.123880000000     0.985760000000     0.0641309  
C43      C      0.629720000000     0.183540000000     0.005560000000     0.064679   
C44      C      0.665380000000     0.219360000000     0.006300000000    -0.0776509  
C45      C      0.332900000000     0.774840000000     0.958470000000     0.236851   
C46      C      0.275190000000     0.834260000000     0.984040000000     0.0774969  
C47      C      0.296400000000     0.739690000000     0.958180000000    -0.154569   
C48      C      0.222180000000     0.663780000000     0.983590000000    -0.0772459  
C49      C      0.238400000000     0.799440000000     0.985490000000    -0.10133    
C50      C      0.210000000000     0.712790000000     0.974570000000     0.0215623  
C51      C      0.248560000000     0.751140000000     0.972680000000     0.0639487  
C52      C      0.186330000000     0.628160000000     0.984060000000     0.0644487  
C53      C      0.125470000000     0.687870000000     0.969240000000     0.0647321  
C54      C      0.160650000000     0.724350000000     0.967340000000    -0.0774851  
C55      C      0.179470000000     0.322050000000     0.950750000000     0.2434     
C56      C      0.119770000000     0.267850000000     0.981980000000     0.0792336  
C57      C      0.214300000000     0.284830000000     0.952020000000    -0.160896   
C58      C      0.287810000000     0.213990000000     0.989670000000    -0.0798207  
C59      C      0.154260000000     0.230400000000     0.984890000000    -0.10549    
C60      C      0.240740000000     0.201020000000     0.976580000000     0.0217902  
C61      C      0.202440000000     0.238970000000     0.970770000000     0.0672237  
C62      C      0.324240000000     0.178700000000     0.993050000000     0.0667167  
C63      C      0.268240000000     0.117240000000     0.973700000000     0.0672736  
C64      C      0.231010000000     0.151870000000     0.969090000000    -0.0795649  
C65      C      0.843350000000     0.988200000000     0.695640000000     0.239616   
C66      C      0.784680000000     0.960190000000     0.640180000000     0.0815481  
C67      C      0.807710000000     0.990870000000     0.732130000000    -0.160305   
C68      C      0.731170000000     0.972120000000     0.809280000000    -0.079568   
C69      C      0.748840000000     0.961430000000     0.676200000000    -0.106262   
C70      C      0.721330000000     0.982170000000     0.760360000000     0.0220858  
C71      C      0.759870000000     0.977840000000     0.722560000000     0.0674602  
C72      C      0.694050000000     0.975890000000     0.844020000000     0.0674696  
C73      C      0.637760000000     0.999000000000     0.783060000000     0.0656985  
C74      C      0.674130000000     0.996540000000     0.747640000000    -0.08074    
C75      C      0.333670000000     0.981500000000     0.775570000000     0.238731   
C76      C      0.274240000000     0.996350000000     0.836970000000     0.0772066  
C77      C      0.297300000000     0.981520000000     0.740350000000    -0.155579   
C78      C      0.220670000000     0.004910000000     0.666430000000    -0.0768549  
C79      C      0.237410000000     0.998060000000     0.802200000000    -0.102357   
C80      C      0.209720000000     0.991500000000     0.714760000000     0.0213138  
C81      C      0.248450000000     0.990510000000     0.752910000000     0.065047   
C82      C      0.184990000000     0.003440000000     0.630710000000     0.0678415  
C83      C      0.126380000000     0.978560000000     0.689260000000     0.0658493  
C84      C      0.161550000000     0.978390000000     0.725710000000    -0.0770084  
C85      C      0.181870000000     0.992200000000     0.323600000000     0.239148   
C86      C      0.120730000000     0.964220000000     0.270840000000     0.0789178  
C87      C      0.216450000000     0.988070000000     0.286400000000    -0.160216   
C88      C      0.288230000000     0.948890000000     0.214550000000    -0.0792703  
C89      C      0.154900000000     0.958780000000     0.233360000000    -0.10551    
C90      C      0.241070000000     0.964110000000     0.202550000000     0.0211235  
C91      C      0.203540000000     0.970190000000     0.241150000000     0.0667305  
C92      C      0.324610000000     0.947920000000     0.179040000000     0.0649727  
C93      C      0.268130000000     0.973080000000     0.119050000000     0.0658493  
C94      C      0.230940000000     0.975240000000     0.153940000000    -0.0793985  
C95      C      0.775220000000     0.985090000000     0.333810000000     0.236168   
C96      C      0.836750000000     0.967190000000     0.275380000000     0.0762084  
C97      C      0.739940000000     0.984750000000     0.297450000000    -0.154538   
C98      C      0.666420000000     0.958860000000     0.222070000000    -0.0768803  
C99      C      0.801960000000     0.965390000000     0.238630000000    -0.101201   
C100     C      0.714380000000     0.972390000000     0.210600000000     0.0210215  
C101     C      0.752570000000     0.974130000000     0.249210000000     0.0636851  
C102     C      0.630710000000     0.959090000000     0.186250000000     0.0622258  
C103     C      0.688540000000     0.983550000000     0.126770000000     0.0641329  
C104     C      0.724970000000     0.984680000000     0.161940000000    -0.0773515  
C105     C      0.959530000000     0.330580000000     0.777360000000     0.236772   
C106     C      0.986720000000     0.273510000000     0.836600000000     0.0772087  
C107     C      0.959620000000     0.294030000000     0.742290000000    -0.155402   
C108     C      0.985820000000     0.220050000000     0.666390000000    -0.0764857  
C109     C      0.988420000000     0.236660000000     0.801860000000    -0.102248   
C110     C      0.977040000000     0.207860000000     0.715410000000     0.0212033  
C111     C      0.974970000000     0.246470000000     0.753690000000     0.0647113  
C112     C      0.986280000000     0.184220000000     0.630770000000     0.0650623  
C113     C      0.971890000000     0.123350000000     0.690490000000     0.0654343  
C114     C      0.970120000000     0.158500000000     0.727000000000    -0.0751498  
C115     C      0.998850000000     0.779160000000     0.638410000000     0.242439   
C116     C      0.973350000000     0.840880000000     0.693140000000     0.0808878  
C117     C      0.996210000000     0.744620000000     0.675750000000    -0.161755   
C118     C      0.958780000000     0.673800000000     0.749250000000    -0.0803264  
C119     C      0.969230000000     0.806780000000     0.730810000000    -0.106221   
C120     C      0.974640000000     0.720330000000     0.760800000000     0.021966   
C121     C      0.980070000000     0.757870000000     0.722130000000     0.0680301  
C122     C      0.957530000000     0.637500000000     0.784770000000     0.0689812  
C123     C      0.983860000000     0.692880000000     0.843990000000     0.0668296  
C124     C      0.986430000000     0.729940000000     0.809030000000    -0.0796999  
C125     C      0.010190000000     0.629740000000     0.185230000000     0.239005   
C126     C      0.979680000000     0.686340000000     0.127180000000     0.0761453  
C127     C      0.010000000000     0.666070000000     0.220550000000    -0.153611   
C128     C      0.997010000000     0.801290000000     0.236590000000    -0.0794833  
C129     C      0.978420000000     0.723070000000     0.162020000000    -0.100845   
C130     C      0.991310000000     0.751770000000     0.248180000000     0.0217032  
C131     C      0.993340000000     0.713350000000     0.209750000000     0.0624654  
C132     C      0.994850000000     0.836360000000     0.273170000000     0.0638586  
C133     C      0.982630000000     0.775050000000     0.332950000000     0.0621735  
C134     C      0.983580000000     0.739270000000     0.297280000000    -0.0776151  
C135     C      0.951640000000     0.178770000000     0.325290000000     0.244332   
C136     C      0.981190000000     0.119010000000     0.270320000000     0.080711   
C137     C      0.952240000000     0.213630000000     0.288120000000    -0.160597   
C138     C      0.989030000000     0.286760000000     0.216450000000    -0.0797552  
C139     C      0.983390000000     0.153510000000     0.232880000000    -0.105286   
C140     C      0.974880000000     0.239950000000     0.203830000000     0.0217073  
C141     C      0.969750000000     0.201700000000     0.241840000000     0.0678571  
C142     C      0.992170000000     0.323080000000     0.181080000000     0.065617   
C143     C      0.970180000000     0.267500000000     0.120230000000     0.0665477  
C144     C      0.965840000000     0.230390000000     0.154960000000    -0.0795235  
H1       H      0.903870000000     0.051490000000     0.551630000000     0.210488   
H2       H      0.051530000000     0.058220000000     0.405780000000     0.205188   
H3       H      0.061850000000     0.909430000000     0.550370000000     0.212335   
H4       H      0.909320000000     0.900220000000     0.412670000000     0.204304   
H5       H      0.062330000000     0.138580000000     0.472750000000     0.127661   
H6       H      0.142440000000     0.076450000000     0.465230000000     0.191214   
H7       H      0.137200000000     0.902270000000     0.452530000000     0.148378   
H8       H      0.072770000000     0.817860000000     0.512870000000     0.211428   
H9       H      0.904190000000     0.817600000000     0.485630000000     0.125999   
H10      H      0.822960000000     0.881780000000     0.481520000000     0.18502    
H11      H      0.825480000000     0.057450000000     0.458310000000     0.158036   
H12      H      0.878280000000     0.124500000000     0.498980000000     0.200298   
H13      H      0.074950000000     0.821630000000     0.452170000000     0.206053   
H14      H      0.782810000000     0.927330000000     0.489560000000     0.204631   
H15      H      0.911730000000     0.168310000000     0.473110000000     0.215387   
H16      H      0.181450000000     0.031750000000     0.480460000000     0.209178   
H17      H      0.912740000000     0.548750000000     0.063300000000     0.212899   
H18      H      0.899630000000     0.411030000000     0.911350000000     0.206611   
H19      H      0.051450000000     0.549390000000     0.902530000000     0.207963   
H20      H      0.060710000000     0.403470000000     0.050080000000     0.203739   
H21      H      0.816140000000     0.476810000000     0.909100000000     0.126094   
H22      H      0.880660000000     0.479340000000     0.823880000000     0.190764   
H23      H      0.054570000000     0.453630000000     0.824150000000     0.150616   
H24      H      0.123930000000     0.497980000000     0.875840000000     0.199937   
H25      H      0.142290000000     0.468310000000     0.058460000000     0.125419   
H26      H      0.082420000000     0.473880000000     0.139680000000     0.187829   
H27      H      0.906130000000     0.450970000000     0.138120000000     0.149516   
H28      H      0.821620000000     0.511330000000     0.076550000000     0.212352   
H29      H      0.167100000000     0.468060000000     0.906770000000     0.215075   
H30      H      0.036800000000     0.468250000000     0.180150000000     0.211759   
H31      H      0.824570000000     0.450560000000     0.078010000000     0.210404   
H32      H      0.925840000000     0.489450000000     0.783790000000     0.20939    
H33      H      0.408250000000     0.044920000000     0.061540000000     0.210477   
H34      H      0.554660000000     0.897780000000     0.051390000000     0.204708   
H35      H      0.416550000000     0.911710000000     0.899670000000     0.213184   
H36      H      0.553820000000     0.063730000000     0.914360000000     0.205082   
H37      H      0.485370000000     0.875910000000     0.130820000000     0.125931   
H38      H      0.486000000000     0.806480000000     0.056620000000     0.186556   
H39      H      0.514410000000     0.841010000000     0.882790000000     0.1485     
H40      H      0.469440000000     0.903300000000     0.821090000000     0.204111   
H41      H      0.481800000000     0.086060000000     0.837620000000     0.12673    
H42      H      0.485770000000     0.155210000000     0.909540000000     0.187031   
H43      H      0.504040000000     0.121590000000     0.080270000000     0.149051   
H44      H      0.442190000000     0.039180000000     0.155900000000     0.201786   
H45      H      0.504880000000     0.940450000000     0.788130000000     0.210783   
H46      H      0.474000000000     0.185790000000     0.960640000000     0.204358   
H47      H      0.502240000000     0.047490000000     0.151270000000     0.205035   
H48      H      0.489740000000     0.774380000000     0.005420000000     0.205388   
H49      H      0.603720000000     0.771720000000     0.947090000000     0.0258098  
H50      H      0.880390000000     0.699510000000     0.963570000000     0.0263712  
H51      H      0.768110000000     0.818860000000     0.996740000000     0.0484643  
H52      H      0.820880000000     0.764170000000     0.955400000000     0.0556569  
H53      H      0.667120000000     0.710690000000     0.949650000000     0.0503683  
H54      H      0.709930000000     0.667740000000     0.009940000000     0.081847   
H55      H      0.704230000000     0.879840000000     0.991350000000     0.0283425  
H56      H      0.754420000000     0.575580000000     0.992020000000     0.163924   
H57      H      0.700000000000     0.086910000000     0.977170000000     0.0291857  
H58      H      0.873280000000     0.263020000000     0.008900000000     0.0263925  
H59      H      0.654360000000     0.255920000000     0.015900000000     0.0508074  
H60      H      0.813020000000     0.200090000000     0.013910000000     0.0545063  
H61      H      0.762350000000     0.147910000000     0.975450000000     0.0482255  
H62      H      0.703180000000     0.304410000000     0.970100000000     0.0782635  
H63      H      0.592630000000     0.194660000000     0.014050000000     0.0254185  
H64      H      0.764500000000     0.377690000000     0.928360000000     0.148283   
H65      H      0.197990000000     0.590960000000     0.991110000000     0.0308766  
H66      H      0.265170000000     0.870830000000     0.994880000000     0.027302   
H67      H      0.148950000000     0.761260000000     0.959400000000     0.0483764  
H68      H      0.202400000000     0.810530000000     0.997640000000     0.054488   
H69      H      0.259250000000     0.652560000000     0.990930000000     0.049273   
H70      H      0.306040000000     0.703530000000     0.946060000000     0.0790786  
H71      H      0.087980000000     0.698770000000     0.963160000000     0.0289451  
H72      H      0.395070000000     0.748260000000     0.972720000000     0.151013   
H73      H      0.360200000000     0.190680000000     0.002820000000     0.0272908  
H74      H      0.083200000000     0.259750000000     0.994630000000     0.0250402  
H75      H      0.195220000000     0.140190000000     0.958620000000     0.0488632  
H76      H      0.143370000000     0.195490000000     0.999690000000     0.0552054  
H77      H      0.296710000000     0.251300000000     0.997430000000     0.0493803  
H78      H      0.250690000000     0.292260000000     0.938550000000     0.0801448  
H79      H      0.259360000000     0.079700000000     0.966770000000     0.0288976  
H80      H      0.206970000000     0.384210000000     0.958760000000     0.155055   
H81      H      0.703070000000     0.967090000000     0.881370000000     0.0295982  
H82      H      0.774000000000     0.947530000000     0.604780000000     0.0229151  
H83      H      0.665140000000     0.006090000000     0.710510000000     0.0512305  
H84      H      0.712600000000     0.949560000000     0.667520000000     0.0561926  
H85      H      0.767030000000     0.960380000000     0.820730000000     0.048786   
H86      H      0.817570000000     0.004340000000     0.767420000000     0.0797563  
H87      H      0.601690000000     0.009940000000     0.771360000000     0.0275589  
H88      H      0.906260000000     0.972930000000     0.719070000000     0.152966   
H89      H      0.195660000000     0.013850000000     0.594010000000     0.0263374  
H90      H      0.263520000000     0.002690000000     0.874430000000     0.0270552  
H91      H      0.150880000000     0.966930000000     0.762000000000     0.0489366  
H92      H      0.200560000000     0.005960000000     0.814210000000     0.0555821  
H93      H      0.256620000000     0.016930000000     0.655810000000     0.0495886  
H94      H      0.307870000000     0.973620000000     0.703240000000     0.0793859  
H95      H      0.089900000000     0.967700000000     0.699650000000     0.0305047  
H96      H      0.394360000000     0.003340000000     0.751020000000     0.159504   
H97      H      0.360780000000     0.936830000000     0.190320000000     0.0302777  
H98      H      0.083650000000     0.953980000000     0.263290000000     0.0258167  
H99      H      0.195000000000     0.987290000000     0.143040000000     0.048603   
H100     H      0.143320000000     0.944720000000     0.198880000000     0.0551445  
H101     H      0.297340000000     0.938330000000     0.251410000000     0.049938   
H102     H      0.253370000000     0.999240000000     0.293210000000     0.0792604  
H103     H      0.258990000000     0.983250000000     0.082060000000     0.0290018  
H104     H      0.208960000000     0.982710000000     0.386030000000     0.151752   
H105     H      0.594320000000     0.948560000000     0.197340000000     0.029805   
H106     H      0.874250000000     0.959750000000     0.264970000000     0.0262623  
H107     H      0.760990000000     0.996150000000     0.150880000000     0.0486175  
H108     H      0.814010000000     0.956330000000     0.202240000000     0.0541774  
H109     H      0.656160000000     0.947620000000     0.258560000000     0.0488211  
H110     H      0.702670000000     0.993520000000     0.307480000000     0.0788495  
H111     H      0.698680000000     0.993780000000     0.089880000000     0.0300169  
H112     H      0.750600000000     0.965190000000     0.395400000000     0.149255   
H113     H      0.993090000000     0.195940000000     0.593570000000     0.0311912  
H114     H      0.998050000000     0.263740000000     0.873060000000     0.0279237  
H115     H      0.962470000000     0.146810000000     0.763960000000     0.0500563  
H116     H      0.001210000000     0.200880000000     0.812880000000     0.0563616  
H117     H      0.992920000000     0.257140000000     0.655160000000     0.0497309  
H118     H      0.947060000000     0.303360000000     0.706210000000     0.0787127  
H119     H      0.966000000000     0.085860000000     0.701390000000     0.0393999  
H120     H      0.972610000000     0.392920000000     0.750670000000     0.152645   
H121     H      0.945730000000     0.601850000000     0.773860000000     0.0259368  
H122     H      0.963550000000     0.878200000000     0.701400000000     0.0237983  
H123     H      0.999070000000     0.765340000000     0.819560000000     0.0486361  
H124     H      0.956470000000     0.818660000000     0.766150000000     0.0549605  
H125     H      0.947670000000     0.665140000000     0.712800000000     0.0502127  
H126     H      0.007010000000     0.707460000000     0.668110000000     0.0819661  
H127     H      0.994360000000     0.701560000000     0.880670000000     0.0281381  
H128     H      0.986950000000     0.752450000000     0.576620000000     0.161227   
H129     H      0.999700000000     0.874000000000     0.262260000000     0.0281103  
H130     H      0.966900000000     0.695940000000     0.091170000000     0.0271459  
H131     H      0.977560000000     0.701980000000     0.308510000000     0.0513028  
H132     H      0.964620000000     0.758630000000     0.151510000000     0.0542659  
H133     H      0.003890000000     0.813210000000     0.199550000000     0.0485611  
H134     H      0.023700000000     0.656890000000     0.256250000000     0.0786433  
H135     H      0.976540000000     0.763110000000     0.370190000000     0.0306427  
H136     H      0.063030000000     0.585290000000     0.190910000000     0.149292   
H137     H      0.002930000000     0.358820000000     0.192780000000     0.0249853  
H138     H      0.993400000000     0.082420000000     0.261870000000     0.025791   
H139     H      0.954460000000     0.194810000000     0.143600000000     0.0490655  
H140     H      0.997250000000     0.142610000000     0.197610000000     0.0555472  
H141     H      0.997900000000     0.295500000000     0.253530000000     0.0495278  
H142     H      0.939240000000     0.250080000000     0.295910000000     0.0810972  
H143     H      0.962140000000     0.258740000000     0.082920000000     0.0287667  
H144     H      0.961410000000     0.206050000000     0.387230000000     0.155056   
N1       N      0.829460000000     0.645740000000     0.988760000000    -0.219191   
N2       N      0.648920000000     0.830110000000     0.970120000000    -0.189868   
N3       N      0.823420000000     0.320320000000     0.988690000000    -0.213745   
N4       N      0.641320000000     0.136070000000     0.995090000000    -0.186476   
N5       N      0.322420000000     0.822250000000     0.971520000000    -0.212915   
N6       N      0.138180000000     0.639930000000     0.977060000000    -0.185083   
N7       N      0.132430000000     0.313840000000     0.966750000000    -0.218404   
N8       N      0.314760000000     0.130710000000     0.984570000000    -0.18868    
N9       N      0.831530000000     0.973960000000     0.649290000000    -0.21763    
N10      N      0.647470000000     0.988340000000     0.830860000000    -0.189594   
N11      N      0.322230000000     0.988700000000     0.824060000000    -0.213547   
N12      N      0.138090000000     0.990260000000     0.641860000000    -0.185632   
N13      N      0.134050000000     0.979720000000     0.316040000000    -0.21815    
N14      N      0.314970000000     0.961050000000     0.131820000000    -0.188779   
N15      N      0.823810000000     0.976300000000     0.322910000000    -0.213192   
N16      N      0.641480000000     0.971430000000     0.138820000000    -0.185209   
N17      N      0.973170000000     0.320470000000     0.824670000000    -0.213634   
N18      N      0.979380000000     0.136080000000     0.642520000000    -0.183612   
N19      N      0.986770000000     0.827220000000     0.646920000000    -0.218495   
N20      N      0.970840000000     0.646650000000     0.831630000000    -0.189053   
N21      N      0.994350000000     0.639590000000     0.138610000000    -0.213139   
N22      N      0.988080000000     0.823390000000     0.321170000000    -0.185487   
N23      N      0.967100000000     0.131670000000     0.316640000000    -0.218149   
N24      N      0.982410000000     0.313740000000     0.133350000000    -0.189594   
O1       O      0.845330000000     0.975780000000     0.403540000000    -0.35263    
O2       O      0.904600000000     0.976270000000     0.344910000000    -0.350461   
O3       O      0.980600000000     0.116160000000     0.561640000000    -0.351913   
O4       O      0.979270000000     0.055920000000     0.619480000000    -0.341967   
O5       O      0.969440000000     0.112760000000     0.397770000000    -0.353738   
O6       O      0.974820000000     0.052390000000     0.341950000000    -0.357935   
O7       O      0.849210000000     0.969880000000     0.567850000000    -0.358594   
O8       O      0.910250000000     0.979570000000     0.621960000000    -0.347703   
O9       O      0.820630000000     0.038200000000     0.488580000000    -0.33812    
O10      O      0.816020000000     0.916020000000     0.485480000000    -0.514023   
O11      O      0.908660000000     0.135190000000     0.484730000000    -0.510783   
O12      O      0.028690000000     0.151850000000     0.473720000000    -0.332263   
O13      O      0.923180000000     0.031660000000     0.434000000000    -0.464003   
O14      O      0.924580000000     0.032320000000     0.530480000000    -0.613901   
O15      O      0.987170000000     0.846210000000     0.565790000000    -0.356114   
O16      O      0.985670000000     0.906830000000     0.621500000000    -0.356659   
O17      O      0.114960000000     0.985280000000     0.396950000000    -0.360125   
O18      O      0.054430000000     0.978210000000     0.341790000000    -0.356585   
O19      O      0.117990000000     0.992210000000     0.560970000000    -0.351815   
O20      O      0.058520000000     0.982610000000     0.618880000000    -0.350273   
O21      O      0.986070000000     0.843310000000     0.402040000000    -0.359099   
O22      O      0.985880000000     0.903570000000     0.344220000000    -0.349032   
O23      O      0.059120000000     0.829550000000     0.482650000000    -0.514094   
O24      O      0.938340000000     0.805760000000     0.486140000000    -0.326727   
O25      O      0.141890000000     0.920530000000     0.482830000000    -0.339397   
O26      O      0.148620000000     0.042880000000     0.474170000000    -0.509545   
O27      O      0.040500000000     0.928210000000     0.529550000000    -0.611386   
O28      O      0.039600000000     0.927510000000     0.432940000000    -0.469198   
O29      O      0.930440000000     0.921830000000     0.536360000000    -0.475115   
O30      O      0.033220000000     0.037540000000     0.427760000000    -0.621049   
O31      O      0.928550000000     0.920990000000     0.432700000000    -0.626843   
O32      O      0.035380000000     0.039280000000     0.531800000000    -0.476785   
O33      O      0.988620000000     0.394600000000     0.114840000000    -0.368135   
O34      O      0.979950000000     0.339670000000     0.054150000000    -0.355633   
O35      O      0.848040000000     0.564520000000     0.989720000000    -0.35527    
O36      O      0.908960000000     0.619970000000     0.986980000000    -0.357114   
O37      O      0.844370000000     0.401030000000     0.987980000000    -0.348061   
O38      O      0.904030000000     0.342680000000     0.986610000000    -0.350353   
O39      O      0.995810000000     0.558670000000     0.117820000000    -0.337368   
O40      O      0.986020000000     0.616840000000     0.058870000000    -0.351583   
O41      O      0.925270000000     0.480670000000     0.143170000000    -0.332572   
O42      O      0.048010000000     0.472040000000     0.146920000000    -0.512235   
O43      O      0.832650000000     0.481110000000     0.062390000000    -0.513301   
O44      O      0.805980000000     0.485480000000     0.942560000000    -0.31712    
O45      O      0.929810000000     0.431080000000     0.040710000000    -0.469288   
O46      O      0.931060000000     0.527870000000     0.041630000000    -0.61199    
O47      O      0.118020000000     0.559080000000     0.978410000000    -0.352407   
O48      O      0.057930000000     0.617180000000     0.977870000000    -0.349342   
O49      O      0.970640000000     0.401270000000     0.845880000000    -0.353318   
O50      O      0.978050000000     0.342900000000     0.904910000000    -0.350764   
O51      O      0.967410000000     0.565550000000     0.849970000000    -0.357499   
O52      O      0.979650000000     0.620270000000     0.910150000000    -0.355583   
O53      O      0.113830000000     0.395130000000     0.967980000000    -0.354607   
O54      O      0.053220000000     0.339570000000     0.974660000000    -0.358213   
O55      O      0.134640000000     0.481830000000     0.905250000000    -0.511824   
O56      O      0.154690000000     0.471320000000     0.024630000000    -0.331728   
O57      O      0.037310000000     0.485300000000     0.820980000000    -0.344588   
O58      O      0.914800000000     0.484200000000     0.816900000000    -0.509437   
O59      O      0.032690000000     0.528280000000     0.923660000000    -0.612405   
O60      O      0.031690000000     0.431730000000     0.922310000000    -0.465855   
O61      O      0.041990000000     0.529540000000     0.034200000000    -0.477479   
O62      O      0.920940000000     0.430920000000     0.930130000000    -0.627681   
O63      O      0.039800000000     0.425510000000     0.032100000000    -0.621225   
O64      O      0.922410000000     0.534630000000     0.931870000000    -0.473544   
O65      O      0.560310000000     0.116000000000     0.994920000000    -0.361784   
O66      O      0.618530000000     0.056360000000     0.988770000000    -0.35165    
O67      O      0.396360000000     0.959260000000     0.113740000000    -0.361152   
O68      O      0.341240000000     0.972040000000     0.053340000000    -0.356119   
O69      O      0.560770000000     0.966360000000     0.118350000000    -0.357541   
O70      O      0.618340000000     0.978570000000     0.059040000000    -0.349594   
O71      O      0.395950000000     0.112640000000     0.988400000000    -0.357969   
O72      O      0.340940000000     0.051490000000     0.983040000000    -0.354203   
O73      O      0.472420000000     0.126630000000     0.064030000000    -0.34016    
O74      O      0.479630000000     0.155380000000     0.944180000000    -0.512609   
O75      O      0.473400000000     0.030520000000     0.141730000000    -0.513475   
O76      O      0.480550000000     0.907320000000     0.147450000000    -0.326883   
O77      O      0.527270000000     0.029530000000     0.042740000000    -0.47033    
O78      O      0.430380000000     0.027450000000     0.040320000000    -0.607272   
O79      O      0.402690000000     0.991550000000     0.845710000000    -0.347263   
O80      O      0.344200000000     0.983700000000     0.904590000000    -0.350507   
O81      O      0.567610000000     0.847980000000     0.968790000000    -0.366832   
O82      O      0.622420000000     0.908670000000     0.978250000000    -0.356956   
O83      O      0.403250000000     0.843310000000     0.971810000000    -0.344123   
O84      O      0.344680000000     0.902590000000     0.975620000000    -0.349894   
O85      O      0.566430000000     0.993100000000     0.849300000000    -0.364934   
O86      O      0.621670000000     0.984170000000     0.910080000000    -0.354988   
O87      O      0.486990000000     0.933380000000     0.817780000000    -0.507658   
O88      O      0.484130000000     0.055310000000     0.819400000000    -0.331824   
O89      O      0.485240000000     0.830490000000     0.901370000000    -0.333025   
O90      O      0.487260000000     0.805310000000     0.021560000000    -0.513861   
O91      O      0.436320000000     0.930050000000     0.921450000000    -0.616094   
O92      O      0.532870000000     0.931930000000     0.923220000000    -0.466568   
O93      O      0.429110000000     0.040670000000     0.930580000000    -0.475785   
O94      O      0.533500000000     0.919260000000     0.033040000000    -0.624206   
O95      O      0.532900000000     0.041750000000     0.932260000000    -0.624482   
O96      O      0.429670000000     0.917530000000     0.031640000000    -0.475064   
O97      O      0.766450000000     0.593680000000     0.020310000000    -0.303619   
O98      O      0.760550000000     0.376800000000     0.964240000000    -0.288217   
O99      O      0.378660000000     0.760830000000     0.943140000000    -0.29114    
O100     O      0.193230000000     0.366090000000     0.931300000000    -0.301371   
O101     O      0.889400000000     0.002730000000     0.706990000000    -0.293748   
O102     O      0.380450000000     0.971400000000     0.760320000000    -0.29866    
O103     O      0.196840000000     0.011030000000     0.366830000000    -0.299232   
O104     O      0.759820000000     0.996590000000     0.379980000000    -0.293889   
O105     O      0.943340000000     0.376010000000     0.763350000000    -0.299974   
O106     O      0.015990000000     0.763920000000     0.593950000000    -0.302842   
O107     O      0.027670000000     0.584560000000     0.198450000000    -0.293425   
O108     O      0.933350000000     0.192600000000     0.369780000000    -0.299404   
Zr1      Zr     0.881570000000     0.973290000000     0.484650000000     1.29658    
Zr2      Zr     0.977670000000     0.080400000000     0.480270000000     1.29751    
Zr3      Zr     0.986370000000     0.879420000000     0.483330000000     1.2984     
Zr4      Zr     0.082240000000     0.986690000000     0.479650000000     1.29613    
Zr5      Zr     0.980370000000     0.978700000000     0.390410000000     1.2673     
Zr6      Zr     0.983390000000     0.980880000000     0.573120000000     1.26879    
Zr7      Zr     0.990100000000     0.477470000000     0.082080000000     1.29764    
Zr8      Zr     0.880910000000     0.481910000000     0.988650000000     1.30363    
Zr9      Zr     0.081750000000     0.477880000000     0.975700000000     1.29618    
Zr10     Zr     0.972470000000     0.482500000000     0.882050000000     1.29635    
Zr11     Zr     0.979710000000     0.388380000000     0.980530000000     1.26753    
Zr12     Zr     0.982730000000     0.571280000000     0.983470000000     1.2654     
Zr13     Zr     0.478890000000     0.079950000000     0.989580000000     1.29255    
Zr14     Zr     0.479280000000     0.967460000000     0.081860000000     1.29375    
Zr15     Zr     0.483670000000     0.992090000000     0.882030000000     1.30054    
Zr16     Zr     0.484340000000     0.879600000000     0.974370000000     1.29748    
Zr17     Zr     0.572870000000     0.981430000000     0.983630000000     1.26986    
Zr18     Zr     0.390080000000     0.978090000000     0.979990000000     1.26498    


