data_structure

_audit_creation_method RASPA-1.0
_audit_creation_date 2023-6-5
_audit_author_name 'Poobodin Mano'

_cell_length_a    21.221
_cell_length_b    21.1468
_cell_length_c    21.3506
_cell_angle_alpha 89.2564
_cell_angle_beta  89.2563
_cell_angle_gamma 89.2563
_cell_volume      9578.81

_symmetry_cell_setting          triclinic
_symmetry_space_group_name_Hall 'P 1'
_symmetry_space_group_name_H-M  'P 1'
_symmetry_Int_Tables_number     1

_symmetry_equiv_pos_as_xyz 'x,y,z'

loop_
_atom_site_label
_atom_site_type_symbol
_atom_site_fract_x
_atom_site_fract_y
_atom_site_fract_z
_atom_site_charge
C1       C      0.830080000000     0.993870000000     0.311640000000     0.377414   
C2       C      0.996480000000     0.141320000000     0.633380000000     0.373685   
C3       C      0.005490000000     0.126730000000     0.307750000000     0.380419   
C4       C      0.820230000000     0.005790000000     0.638500000000     0.378732   
C5       C      0.957430000000     0.830160000000     0.646480000000     0.377538   
C6       C      0.137390000000     0.953780000000     0.317310000000     0.376345   
C7       C      0.127940000000     0.967200000000     0.644870000000     0.379906   
C8       C      0.977170000000     0.820400000000     0.320560000000     0.381917   
C9       C      0.006120000000     0.310820000000     0.118730000000     0.384723   
C10      C      0.821620000000     0.641550000000     0.007840000000     0.380868   
C11      C      0.830130000000     0.313360000000     0.991580000000     0.377848   
C12      C      0.994460000000     0.637750000000     0.131030000000     0.375041   
C13      C      0.129760000000     0.648790000000     0.955650000000     0.375518   
C14      C      0.962090000000     0.322150000000     0.814080000000     0.374734   
C15      C      0.934480000000     0.652520000000     0.829270000000     0.38256    
C16      C      0.136360000000     0.319350000000     0.933530000000     0.37779    
C17      C      0.644870000000     0.127180000000     0.984490000000     0.379009   
C18      C      0.316000000000     0.989380000000     0.136930000000     0.378144   
C19      C      0.643940000000     0.981290000000     0.127560000000     0.376724   
C20      C      0.316660000000     0.139190000000     0.970660000000     0.378522   
C21      C      0.312800000000     0.970120000000     0.828070000000     0.377927   
C22      C      0.640180000000     0.817900000000     0.974230000000     0.380258   
C23      C      0.310580000000     0.827180000000     0.992020000000     0.379346   
C24      C      0.640420000000     0.969370000000     0.818680000000     0.37752    
C25      C      0.673810000000     0.704650000000     0.971700000000    -0.0149936  
C26      C      0.754600000000     0.790560000000     0.972220000000    -0.0274999  
C27      C      0.709190000000     0.670520000000     0.024740000000    -0.0130805  
C28      C      0.786510000000     0.756730000000     0.027560000000     0.0309111  
C29      C      0.677430000000     0.231630000000     0.021200000000    -0.0111733  
C30      C      0.757860000000     0.153350000000     0.976280000000    -0.0270535  
C31      C      0.719130000000     0.282630000000     0.992790000000    -0.0148124  
C32      C      0.806730000000     0.198880000000     0.003410000000     0.0350365  
C33      C      0.240790000000     0.683670000000     0.943000000000    -0.0146395  
C34      C      0.154430000000     0.763990000000     0.957030000000    -0.0262192  
C35      C      0.278410000000     0.715080000000     0.994400000000    -0.0144256  
C36      C      0.193640000000     0.796160000000     0.007750000000     0.0279015  
C37      C      0.203190000000     0.171380000000     0.975570000000    -0.0166462  
C38      C      0.287480000000     0.252800000000     0.957810000000    -0.0262413  
C39      C      0.163170000000     0.204940000000     0.925190000000    -0.0139649  
C40      C      0.248400000000     0.280870000000     0.904120000000     0.0284456  
C41      C      0.754050000000     0.960600000000     0.786980000000    -0.016713   
C42      C      0.670100000000     0.971400000000     0.705720000000    -0.0282227  
C43      C      0.792540000000     0.011600000000     0.751890000000    -0.0122968  
C44      C      0.706080000000     0.026770000000     0.676110000000     0.0304401  
C45      C      0.281730000000     0.942250000000     0.721120000000    -0.0115815  
C46      C      0.202030000000     0.943670000000     0.807460000000    -0.0233558  
C47      C      0.237060000000     0.976470000000     0.677410000000    -0.0154841  
C48      C      0.150310000000     0.965760000000     0.760850000000     0.024812   
C49      C      0.249270000000     0.939290000000     0.282780000000    -0.0136342  
C50      C      0.164230000000     0.952460000000     0.203420000000    -0.0277148  
C51      C      0.286580000000     0.992010000000     0.249730000000    -0.0175157  
C52      C      0.200620000000     0.007450000000     0.173130000000     0.0305415  
C53      C      0.675040000000     0.982620000000     0.238140000000    -0.0192023  
C54      C      0.756450000000     0.999300000000     0.150890000000    -0.0287417  
C55      C      0.722090000000     0.018560000000     0.276830000000    -0.00721547 
C56      C      0.804990000000     0.976460000000     0.199900000000     0.0322214  
C57      C      0.954670000000     0.208760000000     0.783780000000    -0.0157727  
C58      C      0.957520000000     0.294100000000     0.701610000000    -0.0258256  
C59      C      0.003180000000     0.170110000000     0.745570000000    -0.0115911  
C60      C      0.009870000000     0.257450000000     0.666720000000     0.0255378  
C61      C      0.949370000000     0.718270000000     0.681110000000    -0.0146449  
C62      C      0.961080000000     0.804810000000     0.760580000000    -0.028157   
C63      C      0.900360000000     0.687330000000     0.723980000000    -0.0123258  
C64      C      0.912680000000     0.770350000000     0.802610000000     0.0284233  
C65      C      0.005990000000     0.664730000000     0.242750000000    -0.00969334 
C66      C      0.973610000000     0.748100000000     0.161810000000    -0.024806   
C67      C      0.971760000000     0.708420000000     0.289210000000    -0.013164   
C68      C      0.998040000000     0.795460000000     0.209350000000     0.0285944  
C69      C      0.045580000000     0.228770000000     0.268780000000    -0.0168421  
C70      C      0.994280000000     0.151050000000     0.195280000000    -0.0308972  
C71      C      0.014620000000     0.280070000000     0.229190000000    -0.00598978 
C72      C      0.018700000000     0.196340000000     0.143400000000     0.0369214  
H1       H      0.892600000000     0.092440000000     0.560110000000     0.208038   
H2       H      0.091910000000     0.060230000000     0.382390000000     0.205562   
H3       H      0.060820000000     0.873980000000     0.572510000000     0.207272   
H4       H      0.872820000000     0.891740000000     0.386050000000     0.205689   
H5       H      0.117060000000     0.168800000000     0.471220000000     0.126229   
H6       H      0.207040000000     0.065800000000     0.468060000000     0.183736   
H7       H      0.159300000000     0.842350000000     0.450730000000     0.14851    
H8       H      0.073730000000     0.767910000000     0.512760000000     0.195206   
H9       H      0.838150000000     0.797930000000     0.489500000000     0.126753   
H10      H      0.751380000000     0.893670000000     0.485700000000     0.186553   
H11      H      0.801770000000     0.115550000000     0.435170000000     0.147228   
H12      H      0.899720000000     0.208610000000     0.502840000000     0.19745    
H13      H      0.024320000000     0.722540000000     0.473350000000     0.204089   
H14      H      0.713050000000     0.959960000000     0.464090000000     0.202128   
H15      H      0.902450000000     0.204550000000     0.424640000000     0.201158   
H16      H      0.246180000000     0.999010000000     0.486510000000     0.199423   
H17      H      0.897320000000     0.563090000000     0.086200000000     0.209716   
H18      H      0.870030000000     0.388660000000     0.888780000000     0.203508   
H19      H      0.056110000000     0.578320000000     0.862990000000     0.209128   
H20      H      0.095170000000     0.384300000000     0.046810000000     0.202607   
H21      H      0.760190000000     0.479220000000     0.894830000000     0.125329   
H22      H      0.832660000000     0.476570000000     0.777620000000     0.184289   
H23      H      0.055210000000     0.459330000000     0.756840000000     0.14614    
H24      H      0.181590000000     0.532100000000     0.838130000000     0.199459   
H25      H      0.201700000000     0.461290000000     0.043200000000     0.124427   
H26      H      0.132640000000     0.473950000000     0.155310000000     0.185452   
H27      H      0.899860000000     0.441670000000     0.177600000000     0.146396   
H28      H      0.783940000000     0.507040000000     0.113800000000     0.196241   
H29      H      0.164460000000     0.456850000000     0.823120000000     0.202867   
H30      H      0.081310000000     0.466590000000     0.215100000000     0.20273    
H31      H      0.787290000000     0.428160000000     0.109270000000     0.201311   
H32      H      0.887440000000     0.489130000000     0.721840000000     0.20027    
H33      H      0.391650000000     0.079970000000     0.072700000000     0.207306   
H34      H      0.572740000000     0.878890000000     0.075570000000     0.20173    
H35      H      0.387030000000     0.881070000000     0.887840000000     0.208798   
H36      H      0.573550000000     0.073060000000     0.875510000000     0.198723   
H37      H      0.479790000000     0.864990000000     0.181380000000     0.125716   
H38      H      0.497120000000     0.763790000000     0.097810000000     0.183872   
H39      H      0.464480000000     0.730960000000     0.919640000000     0.140987   
H40      H      0.462700000000     0.851380000000     0.788390000000     0.203661   
H41      H      0.497750000000     0.088400000000     0.772640000000     0.125137   
H42      H      0.507660000000     0.186780000000     0.855360000000     0.183003   
H43      H      0.496570000000     0.171830000000     0.087200000000     0.142949   
H44      H      0.443960000000     0.084410000000     0.193910000000     0.196532   
H45      H      0.488880000000     0.900270000000     0.731860000000     0.203934   
H46      H      0.475810000000     0.236640000000     0.907550000000     0.203307   
H47      H      0.522320000000     0.086670000000     0.185310000000     0.200453   
H48      H      0.462850000000     0.718350000000     0.044770000000     0.195179   
H49      H      0.777250000000     0.774310000000     0.927830000000     0.0499425  
H50      H      0.690730000000     0.684760000000     0.926450000000     0.0442801  
H51      H      0.700560000000     0.618980000000     0.021730000000     0.0456392  
H52      H      0.761450000000     0.842510000000     0.975130000000     0.0514585  
H53      H      0.761100000000     0.772990000000     0.070500000000     0.0309591  
H54      H      0.622760000000     0.694350000000     0.976390000000     0.0421002  
H55      H      0.688550000000     0.686500000000     0.070110000000     0.034446   
H56      H      0.769620000000     0.103490000000     0.989550000000     0.0493647  
H57      H      0.685320000000     0.228750000000     0.072520000000     0.0408529  
H58      H      0.708140000000     0.327590000000     0.017370000000     0.0451061  
H59      H      0.762000000000     0.155490000000     0.924310000000     0.0407771  
H60      H      0.851980000000     0.190250000000     0.977880000000     0.0345853  
H61      H      0.627490000000     0.246510000000     0.014740000000     0.0444446  
H62      H      0.706720000000     0.289990000000     0.942760000000     0.0397066  
H63      H      0.164210000000     0.787470000000     0.910990000000     0.0430751  
H64      H      0.255980000000     0.704150000000     0.897080000000     0.0369098  
H65      H      0.329170000000     0.704760000000     0.985580000000     0.0378589  
H66      H      0.103270000000     0.770260000000     0.967670000000     0.051067   
H67      H      0.180140000000     0.773020000000     0.052990000000     0.0361914  
H68      H      0.252790000000     0.632400000000     0.942610000000     0.044802   
H69      H      0.265570000000     0.692390000000     0.040030000000     0.0426415  
H70      H      0.275910000000     0.278830000000     0.001560000000     0.0470587  
H71      H      0.187520000000     0.189120000000     0.022010000000     0.0436313  
H72      H      0.112580000000     0.197390000000     0.936540000000     0.0475662  
H73      H      0.338520000000     0.259280000000     0.947450000000     0.0484637  
H74      H      0.259990000000     0.252000000000     0.862170000000     0.0338474  
H75      H      0.193600000000     0.119880000000     0.974720000000     0.0483409  
H76      H      0.173050000000     0.181520000000     0.879680000000     0.0411467  
H77      H      0.685290000000     0.926880000000     0.682330000000     0.0459936  
H78      H      0.771200000000     0.913530000000     0.770950000000     0.042303   
H79      H      0.843410000000     0.001500000000     0.759280000000     0.0463743  
H80      H      0.618630000000     0.977650000000     0.698060000000     0.0473829  
H81      H      0.692200000000     0.069450000000     0.703270000000     0.0300953  
H82      H      0.763550000000     0.963420000000     0.837910000000     0.0455529  
H83      H      0.781700000000     0.057940000000     0.773920000000     0.0368761  
H84      H      0.200940000000     0.891340000000     0.814750000000     0.0418025  
H85      H      0.276370000000     0.890410000000     0.715130000000     0.0381863  
H86      H      0.250330000000     0.962500000000     0.628940000000     0.0435165  
H87      H      0.191020000000     0.965000000000     0.853800000000     0.0499839  
H88      H      0.138310000000     0.015860000000     0.771520000000     0.0387171  
H89      H      0.330700000000     0.954580000000     0.707030000000     0.0445813  
H90      H      0.244890000000     0.028210000000     0.680850000000     0.0456121  
H91      H      0.178470000000     0.907870000000     0.179610000000     0.049511   
H92      H      0.265750000000     0.893230000000     0.263580000000     0.0427578  
H93      H      0.337540000000     0.983160000000     0.257800000000     0.0452744  
H94      H      0.112670000000     0.959370000000     0.196750000000     0.0529964  
H95      H      0.186440000000     0.050580000000     0.199430000000     0.0321495  
H96      H      0.260060000000     0.939140000000     0.333560000000     0.0419092  
H97      H      0.274070000000     0.037500000000     0.272650000000     0.0364575  
H98      H      0.767890000000     0.978810000000     0.104230000000     0.0500767  
H99      H      0.674990000000     0.932170000000     0.253430000000     0.0427629  
H100     H      0.708040000000     0.013690000000     0.326970000000     0.0394675  
H101     H      0.761080000000     0.051350000000     0.144860000000     0.0469059  
H102     H      0.851390000000     0.996890000000     0.186600000000     0.0356829  
H103     H      0.627260000000     0.002430000000     0.248410000000     0.0445429  
H104     H      0.718770000000     0.069680000000     0.264300000000     0.0373079  
H105     H      0.911010000000     0.280610000000     0.682640000000     0.0398397  
H106     H      0.906870000000     0.192440000000     0.771350000000     0.038179   
H107     H      0.994780000000     0.119070000000     0.754710000000     0.0457398  
H108     H      0.963130000000     0.345830000000     0.693410000000     0.0440558  
H109     H      0.055200000000     0.271370000000     0.687910000000     0.0352938  
H110     H      0.961290000000     0.198220000000     0.834400000000     0.0453531  
H111     H      0.050750000000     0.180440000000     0.763850000000     0.0416387  
H112     H      0.009470000000     0.790990000000     0.775480000000     0.0475776  
H113     H      0.995930000000     0.695320000000     0.689950000000     0.0406496  
H114     H      0.898570000000     0.636100000000     0.713440000000     0.0430195  
H115     H      0.955530000000     0.856770000000     0.766760000000     0.0508482  
H116     H      0.865540000000     0.788630000000     0.788220000000     0.0324346  
H117     H      0.936740000000     0.708560000000     0.631850000000     0.0462815  
H118     H      0.853300000000     0.707890000000     0.712550000000     0.0395255  
H119     H      0.988820000000     0.762370000000     0.113570000000     0.050881   
H120     H      0.057610000000     0.667230000000     0.250310000000     0.0425909  
H121     H      0.987460000000     0.695830000000     0.337320000000     0.0401863  
H122     H      0.921240000000     0.750750000000     0.162540000000     0.0447528  
H123     H      0.975650000000     0.841990000000     0.197940000000     0.0388813  
H124     H      0.991910000000     0.615270000000     0.253580000000     0.0428569  
H125     H      0.920310000000     0.699490000000     0.287470000000     0.0403115  
H126     H      0.007180000000     0.101130000000     0.184210000000     0.0523912  
H127     H      0.096260000000     0.224760000000     0.255460000000     0.0397486  
H128     H      0.040730000000     0.324630000000     0.236440000000     0.0390535  
H129     H      0.941860000000     0.152990000000     0.195210000000     0.0469029  
H130     H      0.990360000000     0.188020000000     0.100890000000     0.0362861  
H131     H      0.043570000000     0.243750000000     0.318460000000     0.0463131  
H132     H      0.965480000000     0.288100000000     0.246280000000     0.0394941  
N1       N      0.776670000000     0.687310000000     0.021580000000    -0.165455   
N2       N      0.687360000000     0.773030000000     0.972040000000    -0.160916   
N3       N      0.786780000000     0.265950000000     0.996570000000    -0.167988   
N4       N      0.692010000000     0.169580000000     0.993650000000    -0.161207   
N5       N      0.262610000000     0.783450000000     0.996780000000    -0.164324   
N6       N      0.172890000000     0.696680000000     0.952430000000    -0.160622   
N7       N      0.180320000000     0.272480000000     0.919880000000    -0.164285   
N8       N      0.270860000000     0.185560000000     0.967160000000    -0.159889   
N9       N      0.775030000000     0.015070000000     0.684900000000    -0.164244   
N10      N      0.686260000000     0.966880000000     0.772720000000    -0.160538   
N11      N      0.170400000000     0.963460000000     0.693280000000    -0.163097   
N12      N      0.266180000000     0.958720000000     0.786030000000    -0.161376   
N13      N      0.269640000000     0.996240000000     0.182590000000    -0.16559    
N14      N      0.181460000000     0.947320000000     0.270130000000    -0.160592   
N15      N      0.787040000000     0.995980000000     0.264230000000    -0.168427   
N16      N      0.690830000000     0.986130000000     0.170680000000    -0.159802   
N17      N      0.001630000000     0.187840000000     0.678160000000    -0.161848   
N18      N      0.959010000000     0.276920000000     0.768630000000    -0.161363   
N19      N      0.915640000000     0.701120000000     0.789570000000    -0.164149   
N20      N      0.953780000000     0.786550000000     0.694460000000    -0.160738   
N21      N      0.982580000000     0.775830000000     0.274580000000    -0.166115   
N22      N      0.992770000000     0.682430000000     0.176990000000    -0.160209   
N23      N      0.013250000000     0.263280000000     0.162260000000    -0.16891    
N24      N      0.015260000000     0.167660000000     0.258680000000    -0.160043   
O1       O      0.809380000000     0.001190000000     0.368480000000    -0.363116   
O2       O      0.888560000000     0.982940000000     0.297310000000    -0.353764   
O3       O      0.002390000000     0.157040000000     0.575030000000    -0.355219   
O4       O      0.986300000000     0.083600000000     0.651820000000    -0.34616    
O5       O      0.011750000000     0.147750000000     0.364050000000    -0.364316   
O6       O      0.991390000000     0.069150000000     0.295140000000    -0.357032   
O7       O      0.802710000000     0.002980000000     0.580810000000    -0.349523   
O8       O      0.878570000000     0.000580000000     0.654920000000    -0.352419   
O9       O      0.787340000000     0.092650000000     0.473360000000    -0.338788   
O10      O      0.751810000000     0.938170000000     0.474850000000    -0.514321   
O11      O      0.917360000000     0.190420000000     0.465100000000    -0.514241   
O12      O      0.076230000000     0.191880000000     0.469190000000    -0.325883   
O13      O      0.918820000000     0.058260000000     0.410880000000    -0.468876   
O14      O      0.915780000000     0.062220000000     0.534920000000    -0.609292   
O15      O      0.954180000000     0.809520000000     0.589860000000    -0.360382   
O16      O      0.964930000000     0.889110000000     0.659990000000    -0.351837   
O17      O      0.156320000000     0.952860000000     0.374920000000    -0.361212   
O18      O      0.079220000000     0.961620000000     0.301600000000    -0.351417   
O19      O      0.149530000000     0.963610000000     0.587830000000    -0.355897   
O20      O      0.068970000000     0.975070000000     0.658380000000    -0.351061   
O21      O      0.968070000000     0.801790000000     0.378160000000    -0.356344   
O22      O      0.982770000000     0.878850000000     0.303770000000    -0.354451   
O23      O      0.034500000000     0.762940000000     0.491000000000    -0.508988   
O24      O      0.877180000000     0.772870000000     0.481920000000    -0.337203   
O25      O      0.170060000000     0.866330000000     0.488560000000    -0.346033   
O26      O      0.207010000000     0.021080000000     0.477930000000    -0.510779   
O27      O      0.038910000000     0.902130000000     0.543950000000    -0.608045   
O28      O      0.043100000000     0.897500000000     0.420040000000    -0.466565   
O29      O      0.896500000000     0.919480000000     0.546650000000    -0.476109   
O30      O      0.061940000000     0.039410000000     0.409860000000    -0.622476   
O31      O      0.900250000000     0.915220000000     0.412750000000    -0.62457    
O32      O      0.058390000000     0.044580000000     0.543180000000    -0.471308   
O33      O      0.006390000000     0.368150000000     0.138880000000    -0.369065   
O34      O      0.000320000000     0.296330000000     0.060410000000    -0.352033   
O35      O      0.803600000000     0.583270000000     0.006310000000    -0.360057   
O36      O      0.879200000000     0.658180000000     0.997570000000    -0.347023   
O37      O      0.809050000000     0.371060000000     0.992350000000    -0.367169   
O38      O      0.889240000000     0.298280000000     0.985870000000    -0.35191    
O39      O      0.005020000000     0.579480000000     0.147520000000    -0.353501   
O40      O      0.983440000000     0.655860000000     0.074010000000    -0.350164   
O41      O      0.931870000000     0.473350000000     0.188110000000    -0.339468   
O42      O      0.089720000000     0.471290000000     0.170700000000    -0.515882   
O43      O      0.796200000000     0.469340000000     0.091370000000    -0.514392   
O44      O      0.749360000000     0.480790000000     0.940030000000    -0.330227   
O45      O      0.923010000000     0.413250000000     0.051520000000    -0.468422   
O46      O      0.919680000000     0.538360000000     0.055140000000    -0.613406   
O47      O      0.150750000000     0.591130000000     0.951660000000    -0.358561   
O48      O      0.070620000000     0.663470000000     0.962690000000    -0.351877   
O49      O      0.957420000000     0.381160000000     0.796950000000    -0.363483   
O50      O      0.969500000000     0.303720000000     0.871530000000    -0.352757   
O51      O      0.932380000000     0.595190000000     0.808470000000    -0.35345    
O52      O      0.952480000000     0.665590000000     0.885070000000    -0.350895   
O53      O      0.154280000000     0.377590000000     0.935390000000    -0.356892   
O54      O      0.078730000000     0.302630000000     0.944030000000    -0.35158    
O55      O      0.162350000000     0.492690000000     0.850730000000    -0.512793   
O56      O      0.210580000000     0.479710000000     0.001190000000    -0.327358   
O57      O      0.033440000000     0.500860000000     0.760280000000    -0.344258   
O58      O      0.876090000000     0.483540000000     0.765520000000    -0.512568   
O59      O      0.036080000000     0.548900000000     0.891700000000    -0.60774    
O60      O      0.039640000000     0.422460000000     0.887410000000    -0.466996   
O61      O      0.061550000000     0.547660000000     0.031820000000    -0.474469   
O62      O      0.898640000000     0.415270000000     0.910990000000    -0.622751   
O63      O      0.064770000000     0.412220000000     0.027040000000    -0.62178    
O64      O      0.894280000000     0.550100000000     0.915710000000    -0.474259   
O65      O      0.587110000000     0.147650000000     0.987570000000    -0.359887   
O66      O      0.660400000000     0.068940000000     0.974220000000    -0.353584   
O67      O      0.373950000000     0.984400000000     0.154960000000    -0.361686   
O68      O      0.300320000000     0.988890000000     0.078700000000    -0.349058   
O69      O      0.586480000000     0.978000000000     0.148410000000    -0.364083   
O70      O      0.659240000000     0.981190000000     0.068700000000    -0.350407   
O71      O      0.374870000000     0.156600000000     0.967500000000    -0.35678    
O72      O      0.299650000000     0.080770000000     0.976680000000    -0.34889    
O73      O      0.472530000000     0.189540000000     0.051470000000    -0.335526   
O74      O      0.489740000000     0.194520000000     0.896430000000    -0.516647   
O75      O      0.482570000000     0.067210000000     0.176230000000    -0.514063   
O76      O      0.479900000000     0.908110000000     0.198890000000    -0.331666   
O77      O      0.542540000000     0.048490000000     0.044490000000    -0.464615   
O78      O      0.417880000000     0.052380000000     0.047440000000    -0.609817   
O79      O      0.370180000000     0.972930000000     0.806990000000    -0.357239   
O80      O      0.297550000000     0.973700000000     0.886800000000    -0.353242   
O81      O      0.582240000000     0.799170000000     0.977240000000    -0.358803   
O82      O      0.656170000000     0.876630000000     0.973690000000    -0.356703   
O83      O      0.368320000000     0.806030000000     0.991580000000    -0.362089   
O84      O      0.296550000000     0.886670000000     0.987930000000    -0.347015   
O85      O      0.582270000000     0.972580000000     0.801220000000    -0.362985   
O86      O      0.657310000000     0.969110000000     0.876750000000    -0.35071    
O87      O      0.476270000000     0.892890000000     0.774960000000    -0.508512   
O88      O      0.474950000000     0.050700000000     0.758540000000    -0.332655   
O89      O      0.469820000000     0.772690000000     0.898820000000    -0.34364    
O90      O      0.479200000000     0.758800000000     0.056810000000    -0.51666    
O91      O      0.414420000000     0.907590000000     0.911600000000    -0.609108   
O92      O      0.538890000000     0.903660000000     0.907700000000    -0.457595   
O93      O      0.410430000000     0.051720000000     0.904990000000    -0.471766   
O94      O      0.545310000000     0.905010000000     0.050020000000    -0.62087    
O95      O      0.545870000000     0.048060000000     0.901900000000    -0.622714   
O96      O      0.410040000000     0.908330000000     0.054000000000    -0.473369   
S1       S      0.858660000000     0.779270000000     0.035120000000    -0.00100113 
S2       S      0.819200000000     0.182520000000     0.076430000000    -0.0142509  
S3       S      0.172370000000     0.869740000000     0.013680000000     0.00434374 
S4       S      0.270310000000     0.352150000000     0.886470000000    -0.00661754 
S5       S      0.682930000000     0.040720000000     0.605110000000    -0.0025192  
S6       S      0.087930000000     0.924150000000     0.776230000000    -0.00492909 
S7       S      0.178090000000     0.019870000000     0.101710000000     0.0040154  
S8       S      0.812860000000     0.900270000000     0.197610000000    -0.0137833  
S9       S      0.012730000000     0.281470000000     0.594260000000     0.000986902
S10      S      0.920320000000     0.790280000000     0.875090000000    -0.000353272
S11      S      0.073380000000     0.803780000000     0.201270000000    -0.000145341
S12      S      0.091180000000     0.179670000000     0.125410000000    -0.019297   
Zr1      Zr     0.849470000000     0.994990000000     0.475470000000     1.28732    
Zr2      Zr     0.997690000000     0.109040000000     0.471840000000     1.29279    
Zr3      Zr     0.960930000000     0.850370000000     0.482710000000     1.29081    
Zr4      Zr     0.109200000000     0.964480000000     0.480500000000     1.28864    
Zr5      Zr     0.982400000000     0.975960000000     0.360780000000     1.27035    
Zr6      Zr     0.975720000000     0.984260000000     0.595360000000     1.25675    
Zr7      Zr     0.003680000000     0.475760000000     0.098220000000     1.30284    
Zr8      Zr     0.850790000000     0.477940000000     0.991930000000     1.29529    
Zr9      Zr     0.108510000000     0.483830000000     0.950530000000     1.29017    
Zr10     Zr     0.956070000000     0.486760000000     0.844410000000     1.28733    
Zr11     Zr     0.982800000000     0.361810000000     0.967700000000     1.26281    
Zr12     Zr     0.976140000000     0.599850000000     0.975750000000     1.2606     
Zr13     Zr     0.480220000000     0.108840000000     0.971310000000     1.29215    
Zr14     Zr     0.479570000000     0.977840000000     0.107320000000     1.29216    
Zr15     Zr     0.476740000000     0.978560000000     0.848280000000     1.29513    
Zr16     Zr     0.476250000000     0.847160000000     0.984440000000     1.28553    
Zr17     Zr     0.596750000000     0.974840000000     0.974440000000     1.26332    
Zr18     Zr     0.359650000000     0.981590000000     0.980890000000     1.26005    


