data_structure

_audit_creation_method RASPA-1.0
_audit_creation_date 2023-6-5
_audit_author_name 'Poobodin Mano'

_cell_length_a    21.4018
_cell_length_b    21.4598
_cell_length_c    21.4757
_cell_angle_alpha 89.2564
_cell_angle_beta  89.2563
_cell_angle_gamma 89.2563
_cell_volume      9860.85

_symmetry_cell_setting          triclinic
_symmetry_space_group_name_Hall 'P 1'
_symmetry_space_group_name_H-M  'P 1'
_symmetry_Int_Tables_number     1

_symmetry_equiv_pos_as_xyz 'x,y,z'

loop_
_atom_site_label
_atom_site_type_symbol
_atom_site_fract_x
_atom_site_fract_y
_atom_site_fract_z
_atom_site_charge
Br1      Br     0.782330000000     0.872820000000     0.954720000000    -0.178464   
Br2      Br     0.877930000000     0.166670000000     0.961620000000    -0.18089    
Br3      Br     0.168830000000     0.874620000000     0.954880000000    -0.182051   
Br4      Br     0.271200000000     0.361610000000     0.922450000000    -0.232556   
Br5      Br     0.688660000000     0.899310000000     0.601790000000    -0.234756   
Br6      Br     0.368210000000     0.979740000000     0.675120000000    -0.224744   
Br7      Br     0.167800000000     0.000360000000     0.076960000000    -0.181368   
Br8      Br     0.780650000000     0.001140000000     0.079830000000    -0.178308   
Br9      Br     0.980860000000     0.073180000000     0.785580000000    -0.199252   
Br10     Br     0.969450000000     0.781740000000     0.879020000000    -0.185468   
Br11     Br     0.983450000000     0.781010000000     0.076970000000    -0.182093   
Br12     Br     0.007480000000     0.168140000000     0.080160000000    -0.184789   
C1       C      0.819550000000     0.975540000000     0.317230000000     0.37768    
C2       C      0.974130000000     0.127450000000     0.641120000000     0.384395   
C3       C      0.970780000000     0.128080000000     0.316000000000     0.383729   
C4       C      0.822400000000     0.959070000000     0.641700000000     0.398086   
C5       C      0.974740000000     0.819510000000     0.640260000000     0.388896   
C6       C      0.128280000000     0.975410000000     0.314420000000     0.386719   
C7       C      0.130120000000     0.977550000000     0.639410000000     0.378345   
C8       C      0.980030000000     0.818900000000     0.316060000000     0.373397   
C9       C      0.979380000000     0.309960000000     0.130630000000     0.393927   
C10      C      0.821260000000     0.635180000000     0.977940000000     0.386817   
C11      C      0.823700000000     0.310090000000     0.979760000000     0.383044   
C12      C      0.980470000000     0.636470000000     0.131830000000     0.384789   
C13      C      0.130370000000     0.636670000000     0.978820000000     0.377632   
C14      C      0.975950000000     0.312540000000     0.822670000000     0.374145   
C15      C      0.969830000000     0.638050000000     0.825760000000     0.398406   
C16      C      0.131940000000     0.313090000000     0.965240000000     0.398762   
C17      C      0.638740000000     0.128620000000     0.977250000000     0.377167   
C18      C      0.310630000000     0.976380000000     0.128850000000     0.39481    
C19      C      0.637340000000     0.977810000000     0.132850000000     0.383586   
C20      C      0.313690000000     0.128320000000     0.965490000000     0.39121    
C21      C      0.315890000000     0.976700000000     0.820590000000     0.385941   
C22      C      0.639210000000     0.820980000000     0.976900000000     0.396947   
C23      C      0.312120000000     0.821680000000     0.979550000000     0.386047   
C24      C      0.641860000000     0.963960000000     0.827460000000     0.39051    
C25      C      0.714920000000     0.667850000000     0.980740000000     0.0267436  
C26      C      0.793910000000     0.742840000000     0.971440000000    -0.00178257 
C27      C      0.669870000000     0.714880000000     0.980230000000     0.0336559  
C28      C      0.748880000000     0.790570000000     0.969630000000     0.154866   
C29      C      0.670690000000     0.234580000000     0.982640000000     0.0265521  
C30      C      0.747080000000     0.155510000000     0.974090000000    -0.00120149 
C31      C      0.717430000000     0.279340000000     0.983430000000     0.0300903  
C32      C      0.794580000000     0.200340000000     0.973830000000     0.151424   
C33      C      0.236330000000     0.669070000000     0.986410000000     0.0259701  
C34      C      0.157360000000     0.744680000000     0.972240000000    -0.00114543 
C35      C      0.281200000000     0.715780000000     0.986570000000     0.0344463  
C36      C      0.202320000000     0.792100000000     0.971290000000     0.153892   
C37      C      0.206320000000     0.159110000000     0.968670000000     0.0334054  
C38      C      0.284130000000     0.233800000000     0.949440000000    -0.00253538 
C39      C      0.160960000000     0.206200000000     0.967990000000     0.0385491  
C40      C      0.239190000000     0.281040000000     0.947710000000     0.153662   
C41      C      0.748950000000     0.969940000000     0.795900000000     0.0354984  
C42      C      0.672730000000     0.939950000000     0.724510000000    -0.00174491 
C43      C      0.794110000000     0.968250000000     0.748480000000     0.0388568  
C44      C      0.717670000000     0.936340000000     0.677420000000     0.157396   
C45      C      0.161060000000     0.976250000000     0.746790000000     0.0331663  
C46      C      0.237410000000     0.979310000000     0.667410000000    -0.00253799 
C47      C      0.208350000000     0.976180000000     0.791660000000     0.0365879  
C48      C      0.284980000000     0.978790000000     0.711630000000     0.149991   
C49      C      0.234350000000     0.969910000000     0.281490000000     0.0273091  
C50      C      0.155560000000     0.982060000000     0.206680000000    -0.00126002 
C51      C      0.279390000000     0.970270000000     0.234560000000     0.0313735  
C52      C      0.200720000000     0.983780000000     0.158990000000     0.151126   
C53      C      0.712890000000     0.972500000000     0.285610000000     0.0267064  
C54      C      0.792000000000     0.983710000000     0.209660000000    -0.00142499 
C55      C      0.667830000000     0.973270000000     0.239000000000     0.02902    
C56      C      0.746990000000     0.985410000000     0.162430000000     0.148757   
C57      C      0.973700000000     0.280500000000     0.716430000000     0.0260087  
C58      C      0.977540000000     0.204340000000     0.795740000000    -0.00276941 
C59      C      0.973250000000     0.233720000000     0.671650000000     0.030354   
C60      C      0.976980000000     0.156790000000     0.751040000000     0.151743   
C61      C      0.969820000000     0.713740000000     0.673000000000     0.026819   
C62      C      0.972800000000     0.792560000000     0.748110000000    -0.000805787
C63      C      0.968030000000     0.668930000000     0.719960000000     0.0352132  
C64      C      0.970880000000     0.747780000000     0.795930000000     0.151432   
C65      C      0.981770000000     0.712430000000     0.284340000000     0.0244098  
C66      C      0.981010000000     0.791660000000     0.207980000000    -0.00168391 
C67      C      0.981970000000     0.667370000000     0.237840000000     0.0325726  
C68      C      0.981300000000     0.746650000000     0.160680000000     0.149089   
C69      C      0.965890000000     0.234020000000     0.283020000000     0.0253608  
C70      C      0.980880000000     0.155480000000     0.208570000000    -0.00219476 
C71      C      0.968810000000     0.279050000000     0.236160000000     0.0324554  
C72      C      0.985160000000     0.200560000000     0.161120000000     0.151577   
H1       H      0.875160000000     0.065490000000     0.568130000000     0.211995   
H2       H      0.068300000000     0.073060000000     0.384130000000     0.205865   
H3       H      0.074590000000     0.879450000000     0.566130000000     0.21262    
H4       H      0.881390000000     0.874780000000     0.386250000000     0.208993   
H5       H      0.079210000000     0.179210000000     0.469010000000     0.129035   
H6       H      0.182290000000     0.093990000000     0.464570000000     0.191336   
H7       H      0.172080000000     0.869010000000     0.442490000000     0.150859   
H8       H      0.086010000000     0.762650000000     0.518710000000     0.203538   
H9       H      0.871220000000     0.767470000000     0.476270000000     0.131173   
H10      H      0.769710000000     0.851280000000     0.481010000000     0.202003   
H11      H      0.777400000000     0.078840000000     0.449890000000     0.148272   
H12      H      0.864150000000     0.183810000000     0.520590000000     0.202482   
H13      H      0.092410000000     0.769590000000     0.441210000000     0.207039   
H14      H      0.721660000000     0.908880000000     0.457600000000     0.221232   
H15      H      0.858440000000     0.178830000000     0.443200000000     0.205969   
H16      H      0.232200000000     0.034830000000     0.478300000000     0.212943   
H17      H      0.881470000000     0.561520000000     0.076430000000     0.21231    
H18      H      0.878630000000     0.381980000000     0.883490000000     0.208895   
H19      H      0.069680000000     0.563950000000     0.879270000000     0.216949   
H20      H      0.076750000000     0.379680000000     0.070850000000     0.207595   
H21      H      0.770750000000     0.469810000000     0.873040000000     0.12923    
H22      H      0.857440000000     0.471100000000     0.769340000000     0.190389   
H23      H      0.077780000000     0.436690000000     0.776060000000     0.150719   
H24      H      0.169130000000     0.453650000000     0.851880000000     0.217418   
H25      H      0.180990000000     0.461410000000     0.083750000000     0.127577   
H26      H      0.096140000000     0.464050000000     0.186210000000     0.19072    
H27      H      0.871760000000     0.436500000000     0.174290000000     0.150493   
H28      H      0.764290000000     0.511060000000     0.087700000000     0.202644   
H29      H      0.205700000000     0.513530000000     0.883830000000     0.215804   
H30      H      0.035430000000     0.472100000000     0.235540000000     0.207608   
H31      H      0.771490000000     0.433420000000     0.092400000000     0.206652   
H32      H      0.918150000000     0.479990000000     0.720210000000     0.206741   
H33      H      0.385060000000     0.072310000000     0.068910000000     0.2136     
H34      H      0.568230000000     0.878370000000     0.077200000000     0.206817   
H35      H      0.389550000000     0.878200000000     0.883120000000     0.211466   
H36      H      0.571580000000     0.069440000000     0.878290000000     0.209169   
H37      H      0.481960000000     0.865130000000     0.182020000000     0.127583   
H38      H      0.479800000000     0.767120000000     0.100190000000     0.189477   
H39      H      0.508450000000     0.784290000000     0.870160000000     0.151597   
H40      H      0.451710000000     0.855500000000     0.783010000000     0.203776   
H41      H      0.467970000000     0.086570000000     0.775920000000     0.137008   
H42      H      0.489040000000     0.186460000000     0.858250000000     0.193832   
H43      H      0.506380000000     0.168710000000     0.082180000000     0.150881   
H44      H      0.430330000000     0.079050000000     0.189140000000     0.204957   
H45      H      0.499360000000     0.895830000000     0.735670000000     0.223453   
H46      H      0.473870000000     0.233840000000     0.918060000000     0.212124   
H47      H      0.508050000000     0.085000000000     0.183430000000     0.20797    
H48      H      0.475460000000     0.717340000000     0.041060000000     0.208788   
H49      H      0.621630000000     0.700380000000     0.984500000000     0.0373684  
H50      H      0.698950000000     0.620210000000     0.985120000000     0.0408225  
H51      H      0.842660000000     0.755580000000     0.967050000000     0.0904496  
H52      H      0.702030000000     0.327440000000     0.987760000000     0.0405244  
H53      H      0.622630000000     0.250890000000     0.986240000000     0.0385085  
H54      H      0.760680000000     0.106930000000     0.969440000000     0.0849127  
H55      H      0.329260000000     0.700700000000     0.992960000000     0.0399094  
H56      H      0.252620000000     0.621350000000     0.992470000000     0.0440528  
H57      H      0.108780000000     0.757970000000     0.965810000000     0.0897534  
H58      H      0.112930000000     0.192460000000     0.975960000000     0.0658069  
H59      H      0.191210000000     0.111650000000     0.976730000000     0.0667128  
H60      H      0.332310000000     0.246570000000     0.940340000000     0.065213   
H61      H      0.841290000000     0.980910000000     0.760510000000     0.0605709  
H62      H      0.763260000000     0.983490000000     0.841990000000     0.063187   
H63      H      0.625490000000     0.926400000000     0.713550000000     0.0650913  
H64      H      0.193630000000     0.975180000000     0.840140000000     0.0645916  
H65      H      0.112890000000     0.975160000000     0.762990000000     0.0628197  
H66      H      0.251360000000     0.980480000000     0.618680000000     0.066099   
H67      H      0.327480000000     0.964730000000     0.249140000000     0.0422963  
H68      H      0.250260000000     0.964330000000     0.329010000000     0.0391296  
H69      H      0.106880000000     0.987740000000     0.194070000000     0.0745313  
H70      H      0.619580000000     0.968430000000     0.254110000000     0.0413185  
H71      H      0.696670000000     0.967390000000     0.333410000000     0.037005   
H72      H      0.840690000000     0.988770000000     0.196120000000     0.0746905  
H73      H      0.971380000000     0.249060000000     0.623400000000     0.0401226  
H74      H      0.972280000000     0.328460000000     0.699930000000     0.0368326  
H75      H      0.979540000000     0.190690000000     0.844470000000     0.0847629  
H76      H      0.966300000000     0.620830000000     0.705260000000     0.0386211  
H77      H      0.969180000000     0.697700000000     0.625330000000     0.0424292  
H78      H      0.974240000000     0.841240000000     0.760960000000     0.0772427  
H79      H      0.982190000000     0.619080000000     0.253320000000     0.0383655  
H80      H      0.982010000000     0.696030000000     0.332310000000     0.0416503  
H81      H      0.980930000000     0.840450000000     0.194190000000     0.0747171  
H82      H      0.962700000000     0.327080000000     0.250380000000     0.0358545  
H83      H      0.958320000000     0.249800000000     0.330320000000     0.0399425  
H84      H      0.987110000000     0.106960000000     0.196060000000     0.0745952  
N1       N      0.776950000000     0.681770000000     0.976920000000    -0.163814   
N2       N      0.686100000000     0.776500000000     0.975350000000    -0.186524   
N3       N      0.685270000000     0.172520000000     0.978170000000    -0.162064   
N4       N      0.779730000000     0.263150000000     0.979130000000    -0.182379   
N5       N      0.174260000000     0.683260000000     0.979380000000    -0.160315   
N6       N      0.265130000000     0.777670000000     0.979130000000    -0.181874   
N7       N      0.268040000000     0.173310000000     0.961260000000    -0.164442   
N8       N      0.177200000000     0.267510000000     0.959810000000    -0.186147   
N9       N      0.687920000000     0.958020000000     0.783110000000    -0.164243   
N10      N      0.778320000000     0.953880000000     0.688540000000    -0.185475   
N11      N      0.175590000000     0.977810000000     0.684520000000    -0.160991   
N12      N      0.270640000000     0.977260000000     0.774810000000    -0.180734   
N13      N      0.172420000000     0.975510000000     0.267670000000    -0.16638    
N14      N      0.263400000000     0.976930000000     0.173040000000    -0.185191   
N15      N      0.775160000000     0.977160000000     0.271110000000    -0.16368    
N16      N      0.684060000000     0.979020000000     0.177030000000    -0.181947   
N17      N      0.975790000000     0.266080000000     0.778640000000    -0.16126    
N18      N      0.974740000000     0.171500000000     0.688000000000    -0.182118   
N19      N      0.972630000000     0.775520000000     0.686950000000    -0.16523    
N20      N      0.969260000000     0.685090000000     0.781620000000    -0.186051   
N21      N      0.980990000000     0.774740000000     0.269710000000    -0.162057   
N22      N      0.981300000000     0.683520000000     0.175670000000    -0.181409   
N23      N      0.971860000000     0.172230000000     0.269330000000    -0.165506   
N24      N      0.978110000000     0.263060000000     0.174970000000    -0.186192   
O1       O      0.800460000000     0.972740000000     0.374810000000    -0.360555   
O2       O      0.878170000000     0.976510000000     0.301100000000    -0.343091   
O3       O      0.975030000000     0.147030000000     0.583530000000    -0.353964   
O4       O      0.972600000000     0.068870000000     0.655920000000    -0.325765   
O5       O      0.969940000000     0.147050000000     0.373090000000    -0.361313   
O6       O      0.972330000000     0.069990000000     0.300620000000    -0.34776    
O7       O      0.803770000000     0.958060000000     0.584720000000    -0.334311   
O8       O      0.880100000000     0.966920000000     0.656830000000    -0.343909   
O9       O      0.769390000000     0.052010000000     0.486920000000    -0.32689    
O10      O      0.762160000000     0.894950000000     0.472020000000    -0.508653   
O11      O      0.879890000000     0.168260000000     0.481300000000    -0.515374   
O12      O      0.035980000000     0.195350000000     0.474660000000    -0.322478   
O13      O      0.901960000000     0.042600000000     0.416370000000    -0.46865    
O14      O      0.901830000000     0.041130000000     0.540860000000    -0.612089   
O15      O      0.973420000000     0.800540000000     0.583260000000    -0.359547   
O16      O      0.977640000000     0.877450000000     0.655570000000    -0.346784   
O17      O      0.147510000000     0.976120000000     0.371370000000    -0.365242   
O18      O      0.070000000000     0.975170000000     0.299310000000    -0.349048   
O19      O      0.148300000000     0.980300000000     0.581540000000    -0.34921    
O20      O      0.071800000000     0.974100000000     0.656310000000    -0.332823   
O21      O      0.979690000000     0.799460000000     0.373580000000    -0.356042   
O22      O      0.978820000000     0.877590000000     0.300340000000    -0.340059   
O23      O      0.070620000000     0.779180000000     0.479660000000    -0.514876   
O24      O      0.914750000000     0.751430000000     0.478370000000    -0.323048   
O25      O      0.179900000000     0.893470000000     0.480310000000    -0.333611   
O26      O      0.190000000000     0.050150000000     0.472420000000    -0.513939   
O27      O      0.048090000000     0.904630000000     0.539500000000    -0.612089   
O28      O      0.048500000000     0.905520000000     0.414900000000    -0.468828   
O29      O      0.906780000000     0.899880000000     0.545690000000    -0.469931   
O30      O      0.043300000000     0.046820000000     0.411240000000    -0.620262   
O31      O      0.906260000000     0.900460000000     0.412720000000    -0.628365   
O32      O      0.044610000000     0.047000000000     0.544040000000    -0.473516   
O33      O      0.980440000000     0.367030000000     0.149740000000    -0.36647    
O34      O      0.978220000000     0.295480000000     0.072570000000    -0.328837   
O35      O      0.802370000000     0.578060000000     0.977550000000    -0.359505   
O36      O      0.879420000000     0.650690000000     0.979100000000    -0.338141   
O37      O      0.803760000000     0.367590000000     0.979740000000    -0.358115   
O38      O      0.882490000000     0.295450000000     0.980050000000    -0.322091   
O39      O      0.983410000000     0.578760000000     0.151270000000    -0.348018   
O40      O      0.976220000000     0.651300000000     0.073540000000    -0.32358    
O41      O      0.894330000000     0.475810000000     0.180790000000    -0.338543   
O42      O      0.051710000000     0.468980000000     0.193500000000    -0.51299    
O43      O      0.781070000000     0.472390000000     0.071580000000    -0.513885   
O44      O      0.754450000000     0.473700000000     0.916200000000    -0.322603   
O45      O      0.908630000000     0.410490000000     0.050650000000    -0.467548   
O46      O      0.906920000000     0.534850000000     0.050210000000    -0.611699   
O47      O      0.150150000000     0.579280000000     0.981120000000    -0.353688   
O48      O      0.071610000000     0.652080000000     0.975760000000    -0.327488   
O49      O      0.973630000000     0.370210000000     0.803480000000    -0.359804   
O50      O      0.977870000000     0.296630000000     0.881140000000    -0.331656   
O51      O      0.967280000000     0.581070000000     0.806660000000    -0.357213   
O52      O      0.974200000000     0.652240000000     0.883570000000    -0.332524   
O53      O      0.149550000000     0.370160000000     0.968310000000    -0.343426   
O54      O      0.074040000000     0.296660000000     0.968930000000    -0.342399   
O55      O      0.173560000000     0.482320000000     0.885810000000    -0.508944   
O56      O      0.197830000000     0.468700000000     0.041150000000    -0.310565   
O57      O      0.059030000000     0.479110000000     0.775110000000    -0.337997   
O58      O      0.901830000000     0.475550000000     0.762180000000    -0.513407   
O59      O      0.044760000000     0.536690000000     0.905410000000    -0.613209   
O60      O      0.046740000000     0.412800000000     0.905280000000    -0.468286   
O61      O      0.049550000000     0.540340000000     0.047800000000    -0.475864   
O62      O      0.904280000000     0.408400000000     0.908440000000    -0.628667   
O63      O      0.050170000000     0.407070000000     0.046510000000    -0.621726   
O64      O      0.902860000000     0.541180000000     0.909050000000    -0.471674   
O65      O      0.581150000000     0.148180000000     0.975570000000    -0.359992   
O66      O      0.654490000000     0.070040000000     0.977790000000    -0.332683   
O67      O      0.367750000000     0.974030000000     0.148240000000    -0.361569   
O68      O      0.296450000000     0.977610000000     0.070680000000    -0.327186   
O69      O      0.579410000000     0.976410000000     0.151960000000    -0.35625    
O70      O      0.652850000000     0.976950000000     0.074540000000    -0.323385   
O71      O      0.371150000000     0.146350000000     0.963250000000    -0.355852   
O72      O      0.297320000000     0.070800000000     0.972000000000    -0.339809   
O73      O      0.467550000000     0.175330000000     0.058300000000    -0.334888   
O74      O      0.480540000000     0.192350000000     0.902100000000    -0.513549   
O75      O      0.470020000000     0.063870000000     0.173130000000    -0.513337   
O76      O      0.473960000000     0.907470000000     0.198330000000    -0.324334   
O77      O      0.537330000000     0.046110000000     0.046600000000    -0.470199   
O78      O      0.412640000000     0.046010000000     0.044460000000    -0.608164   
O79      O      0.373980000000     0.977900000000     0.803560000000    -0.3352     
O80      O      0.298590000000     0.974840000000     0.878810000000    -0.332046   
O81      O      0.581830000000     0.802220000000     0.978370000000    -0.363583   
O82      O      0.654100000000     0.878880000000     0.978080000000    -0.330224   
O83      O      0.369770000000     0.802110000000     0.983230000000    -0.349718   
O84      O      0.297330000000     0.880200000000     0.976380000000    -0.322271   
O85      O      0.584630000000     0.963570000000     0.808780000000    -0.35819    
O86      O      0.657500000000     0.970110000000     0.884940000000    -0.338537   
O87      O      0.476410000000     0.892080000000     0.774550000000    -0.507236   
O88      O      0.485370000000     0.046730000000     0.760140000000    -0.313203   
O89      O      0.475200000000     0.770520000000     0.899530000000    -0.336122   
O90      O      0.477240000000     0.759540000000     0.056050000000    -0.514509   
O91      O      0.415740000000     0.903810000000     0.908340000000    -0.6183     
O92      O      0.539670000000     0.903290000000     0.910100000000    -0.465865   
O93      O      0.410340000000     0.046200000000     0.903230000000    -0.474606   
O94      O      0.541500000000     0.903790000000     0.051000000000    -0.624363   
O95      O      0.544030000000     0.044720000000     0.904330000000    -0.626946   
O96      O      0.407620000000     0.904920000000     0.050630000000    -0.472302   
Zr1      Zr     0.846320000000     0.967760000000     0.479180000000     1.30423    
Zr2      Zr     0.971990000000     0.102430000000     0.478320000000     1.29339    
Zr3      Zr     0.978260000000     0.844670000000     0.478160000000     1.29783    
Zr4      Zr     0.103930000000     0.978930000000     0.476870000000     1.29817    
Zr5      Zr     0.974680000000     0.973980000000     0.360640000000     1.26883    
Zr6      Zr     0.975670000000     0.973130000000     0.595540000000     1.26971    
Zr7      Zr     0.981490000000     0.472990000000     0.106740000000     1.29233    
Zr8      Zr     0.847540000000     0.473160000000     0.980090000000     1.2956     
Zr9      Zr     0.105720000000     0.474690000000     0.976000000000     1.30684    
Zr10     Zr     0.971880000000     0.475140000000     0.849090000000     1.29562    
Zr11     Zr     0.977860000000     0.356590000000     0.977190000000     1.27847    
Zr12     Zr     0.975760000000     0.590980000000     0.978300000000     1.27747    
Zr13     Zr     0.476240000000     0.103480000000     0.971640000000     1.29899    
Zr14     Zr     0.474120000000     0.974580000000     0.106120000000     1.29411    
Zr15     Zr     0.478460000000     0.975310000000     0.848820000000     1.30693    
Zr16     Zr     0.475850000000     0.845920000000     0.983300000000     1.29372    
Zr17     Zr     0.593760000000     0.974440000000     0.978590000000     1.28076    
Zr18     Zr     0.358340000000     0.975310000000     0.975660000000     1.2747     


