data_structure

_audit_creation_method RASPA-1.0
_audit_creation_date 2023-6-5
_audit_author_name 'Poobodin Mano'

_cell_length_a    27.5396
_cell_length_b    27.5216
_cell_length_c    27.4359
_cell_angle_alpha 89.2565
_cell_angle_beta  89.2563
_cell_angle_gamma 89.2563
_cell_volume      20789.4

_symmetry_cell_setting          triclinic
_symmetry_space_group_name_Hall 'P 1'
_symmetry_space_group_name_H-M  'P 1'
_symmetry_Int_Tables_number     1

_symmetry_equiv_pos_as_xyz 'x,y,z'

loop_
_atom_site_label
_atom_site_type_symbol
_atom_site_fract_x
_atom_site_fract_y
_atom_site_fract_z
_atom_site_charge
Br1      Br     0.889030000000     0.701540000000     0.047030000000    -0.223157   
Br2      Br     0.714020000000     0.063730000000     0.948930000000    -0.240313   
Br3      Br     0.394190000000     0.749410000000     0.946060000000    -0.23884    
Br4      Br     0.251810000000     0.060260000000     0.037690000000    -0.233773   
Br5      Br     0.759190000000     0.045550000000     0.580070000000    -0.232355   
Br6      Br     0.054960000000     0.003450000000     0.721590000000    -0.23467    
Br7      Br     0.381670000000     0.030000000000     0.206230000000    -0.243707   
Br8      Br     0.807040000000     0.088610000000     0.346930000000    -0.187267   
Br9      Br     0.928160000000     0.253830000000     0.897490000000    -0.240534   
Br10     Br     0.034810000000     0.763830000000     0.584610000000    -0.249151   
Br11     Br     0.018600000000     0.712730000000     0.063050000000    -0.215951   
Br12     Br     0.869820000000     0.147820000000     0.350750000000    -0.195643   
C1       C      0.865500000000     0.989380000000     0.351810000000     0.397072   
C2       C      0.980150000000     0.103440000000     0.605800000000     0.381007   
C3       C      0.972200000000     0.094810000000     0.351600000000     0.409025   
C4       C      0.858090000000     0.987180000000     0.606540000000     0.401226   
C5       C      0.977600000000     0.863370000000     0.611870000000     0.396281   
C6       C      0.102100000000     0.968220000000     0.357390000000     0.392583   
C7       C      0.097690000000     0.979690000000     0.611770000000     0.387298   
C8       C      0.980900000000     0.857770000000     0.359070000000     0.382846   
C9       C      0.972180000000     0.352000000000     0.103480000000     0.38681    
C10      C      0.864480000000     0.609710000000     0.980390000000     0.398403   
C11      C      0.857210000000     0.357160000000     0.984400000000     0.380115   
C12      C      0.989090000000     0.604580000000     0.104890000000     0.396077   
C13      C      0.103550000000     0.603130000000     0.987780000000     0.380052   
C14      C      0.979320000000     0.354560000000     0.862550000000     0.388417   
C15      C      0.977570000000     0.608480000000     0.865370000000     0.388498   
C16      C      0.097880000000     0.350000000000     0.983040000000     0.385181   
C17      C      0.605260000000     0.101740000000     0.981600000000     0.38777    
C18      C      0.356620000000     0.975590000000     0.105960000000     0.403666   
C19      C      0.609170000000     0.983280000000     0.103240000000     0.377678   
C20      C      0.351060000000     0.095090000000     0.982760000000     0.399074   
C21      C      0.353960000000     0.979170000000     0.864720000000     0.378482   
C22      C      0.610940000000     0.861920000000     0.979730000000     0.38966    
C23      C      0.358470000000     0.855180000000     0.986600000000     0.387669   
C24      C      0.607120000000     0.975780000000     0.862720000000     0.39171    
C25      C      0.838130000000     0.690680000000     0.001090000000     0.18938    
C26      C      0.789960000000     0.640540000000     0.951460000000     0.0787866  
C27      C      0.803400000000     0.727910000000     0.997500000000    -0.125506   
C28      C      0.673760000000     0.744330000000     0.976490000000    -0.0820206  
C29      C      0.754970000000     0.677080000000     0.947220000000    -0.0965098  
C30      C      0.722130000000     0.758340000000     0.971100000000     0.0290635  
C31      C      0.761220000000     0.721130000000     0.970870000000     0.0564246  
C32      C      0.637220000000     0.779440000000     0.979010000000     0.0697402  
C33      C      0.695150000000     0.842230000000     0.971080000000     0.0699256  
C34      C      0.732720000000     0.807910000000     0.968140000000    -0.0808658  
C35      C      0.689620000000     0.125950000000     0.970840000000     0.185854   
C36      C      0.628920000000     0.183530000000     0.993590000000     0.073078   
C37      C      0.724860000000     0.162350000000     0.971890000000    -0.120222   
C38      C      0.738710000000     0.297720000000     0.974980000000    -0.077594   
C39      C      0.663670000000     0.220150000000     0.995760000000    -0.0932719  
C40      C      0.750440000000     0.248970000000     0.985690000000     0.0293667  
C41      C      0.712560000000     0.210080000000     0.984720000000     0.0546037  
C42      C      0.774590000000     0.333350000000     0.975410000000     0.0668652  
C43      C      0.834230000000     0.274150000000     0.995770000000     0.0743235  
C44      C      0.799080000000     0.237790000000     0.996680000000    -0.0758196  
C45      C      0.332970000000     0.772290000000     0.972900000000     0.183506   
C46      C      0.276190000000     0.832180000000     0.999490000000     0.0726938  
C47      C      0.296350000000     0.737330000000     0.974110000000    -0.11983    
C48      C      0.221450000000     0.662580000000     0.001210000000    -0.0771467  
C49      C      0.239170000000     0.797670000000     0.001470000000    -0.0894377  
C50      C      0.210080000000     0.711380000000     0.990260000000     0.0283735  
C51      C      0.248890000000     0.749280000000     0.988920000000     0.0527114  
C52      C      0.185600000000     0.627060000000     0.000010000000     0.0680881  
C53      C      0.126380000000     0.686600000000     0.979350000000     0.0719268  
C54      C      0.161570000000     0.723000000000     0.979500000000    -0.0753185  
C55      C      0.267950000000     0.118620000000     0.001370000000     0.190302   
C56      C      0.321960000000     0.173280000000     0.961250000000     0.080579   
C57      C      0.231070000000     0.154050000000     0.999930000000    -0.124685   
C58      C      0.152920000000     0.228330000000     0.973600000000    -0.0790152  
C59      C      0.285730000000     0.208780000000     0.958920000000    -0.0969659  
C60      C      0.202110000000     0.238630000000     0.980010000000     0.0280507  
C61      C      0.239810000000     0.199700000000     0.978960000000     0.0573313  
C62      C      0.118310000000     0.265850000000     0.975160000000     0.0687181  
C63      C      0.179980000000     0.323270000000     0.988840000000     0.0667406  
C64      C      0.215250000000     0.286740000000     0.988130000000    -0.0804882  
C65      C      0.777640000000     0.006630000000     0.636020000000     0.187995   
C66      C      0.834910000000     0.966020000000     0.686960000000     0.0808683  
C67      C      0.742530000000     0.003130000000     0.672890000000    -0.122271   
C68      C      0.667060000000     0.968340000000     0.743480000000    -0.0817676  
C69      C      0.800260000000     0.961330000000     0.723960000000    -0.0947708  
C70      C      0.715630000000     0.975290000000     0.755690000000     0.0303397  
C71      C      0.753290000000     0.979620000000     0.716990000000     0.0560187  
C72      C      0.631410000000     0.968010000000     0.779740000000     0.0720468  
C73      C      0.690940000000     0.977730000000     0.840420000000     0.0719519  
C74      C      0.727490000000     0.979300000000     0.804920000000    -0.077713   
C75      C      0.119420000000     0.987770000000     0.697540000000     0.184654   
C76      C      0.179270000000     0.968930000000     0.637630000000     0.0738708  
C77      C      0.155520000000     0.987880000000     0.733460000000    -0.118579   
C78      C      0.291410000000     0.990540000000     0.747220000000    -0.0797021  
C79      C      0.215470000000     0.967730000000     0.672940000000    -0.0913088  
C80      C      0.243370000000     0.978590000000     0.759790000000     0.0291359  
C81      C      0.204330000000     0.977900000000     0.721740000000     0.0529803  
C82      C      0.327660000000     0.990210000000     0.782550000000     0.0673909  
C83      C      0.270450000000     0.968620000000     0.843800000000     0.0686695  
C84      C      0.233430000000     0.967480000000     0.809090000000    -0.0771854  
C85      C      0.327030000000     0.991710000000     0.187030000000     0.194229   
C86      C      0.277070000000     0.953410000000     0.129130000000     0.0886339  
C87      C      0.290570000000     0.986960000000     0.222280000000    -0.125492   
C88      C      0.220130000000     0.951530000000     0.297500000000    -0.0825442  
C89      C      0.240300000000     0.947810000000     0.163910000000    -0.0942592  
C90      C      0.208330000000     0.960440000000     0.248710000000     0.0299666  
C91      C      0.247060000000     0.964360000000     0.211210000000     0.0589824  
C92      C      0.184070000000     0.953610000000     0.333310000000     0.0701234  
C93      C      0.124350000000     0.969420000000     0.273350000000     0.0701088  
C94      C      0.159680000000     0.968490000000     0.236660000000    -0.0816382  
C95      C      0.796810000000     0.027730000000     0.314680000000     0.184736   
C96      C      0.834780000000     0.959240000000     0.277920000000     0.0779476  
C97      C      0.759100000000     0.026430000000     0.280640000000    -0.116211   
C98      C      0.731180000000     0.984040000000     0.157310000000    -0.0776716  
C99      C      0.798570000000     0.957920000000     0.242590000000    -0.0920281  
C100     C      0.720210000000     0.989660000000     0.207010000000     0.0294085  
C101     C      0.759460000000     0.991020000000     0.244190000000     0.0523231  
C102     C      0.693800000000     0.982520000000     0.123060000000     0.068122   
C103     C      0.634730000000     0.990890000000     0.185920000000     0.0677859  
C104     C      0.671220000000     0.993460000000     0.220940000000    -0.079246   
C105     C      0.960660000000     0.272590000000     0.837470000000     0.185105   
C106     C      0.996670000000     0.328700000000     0.781950000000     0.0737583  
C107     C      0.960750000000     0.237240000000     0.800990000000    -0.12049    
C108     C      0.982900000000     0.159600000000     0.726780000000    -0.0745802  
C109     C      0.998060000000     0.293740000000     0.745390000000    -0.0943747  
C110     C      0.979880000000     0.209390000000     0.715150000000     0.0282508  
C111     C      0.979770000000     0.247150000000     0.754300000000     0.0546481  
C112     C      0.982080000000     0.124860000000     0.689990000000     0.0697246  
C113     C      0.977050000000     0.186810000000     0.629670000000     0.0675811  
C114     C      0.976590000000     0.222500000000     0.665630000000    -0.0780589  
C115     C      0.997850000000     0.783180000000     0.641540000000     0.191748   
C116     C      0.960780000000     0.841250000000     0.694080000000     0.0813802  
C117     C      0.995520000000     0.748130000000     0.678470000000    -0.12564    
C118     C      0.980800000000     0.730750000000     0.810710000000    -0.0793189  
C119     C      0.957750000000     0.806560000000     0.731610000000    -0.094233   
C120     C      0.971420000000     0.720710000000     0.761890000000     0.0295172  
C121     C      0.974460000000     0.759080000000     0.723600000000     0.0572721  
C122     C      0.981840000000     0.692930000000     0.845110000000     0.0704273  
C123     C      0.963690000000     0.635850000000     0.784160000000     0.0714925  
C124     C      0.961620000000     0.672750000000     0.749140000000    -0.081868   
C125     C      0.998580000000     0.689290000000     0.126860000000     0.194576   
C126     C      0.987850000000     0.628450000000     0.187820000000     0.0778359  
C127     C      0.995370000000     0.725300000000     0.162500000000    -0.119332   
C128     C      0.006160000000     0.798080000000     0.242510000000    -0.0776821  
C129     C      0.987320000000     0.663490000000     0.224180000000    -0.093043   
C130     C      0.987110000000     0.751430000000     0.250700000000     0.0280023  
C131     C      0.989670000000     0.713060000000     0.212050000000     0.0558818  
C132     C      0.002490000000     0.833460000000     0.278510000000     0.0696658  
C133     C      0.964470000000     0.777580000000     0.332480000000     0.0660158  
C134     C      0.965450000000     0.742030000000     0.296530000000    -0.0786698  
C135     C      0.929480000000     0.161240000000     0.315590000000     0.185804   
C136     C      0.999750000000     0.127350000000     0.276860000000     0.0823576  
C137     C      0.928290000000     0.199000000000     0.281010000000    -0.121107   
C138     C      0.968230000000     0.229680000000     0.157420000000    -0.0808085  
C139     C      0.998920000000     0.163810000000     0.241340000000    -0.0965351  
C140     C      0.963250000000     0.240150000000     0.206970000000     0.0294928  
C141     C      0.963620000000     0.200700000000     0.243860000000     0.056031   
C142     C      0.970380000000     0.267480000000     0.123230000000     0.0692092  
C143     C      0.962720000000     0.325600000000     0.186100000000     0.0682749  
C144     C      0.959810000000     0.288630000000     0.221190000000    -0.081961   
H1       H      0.906400000000     0.060150000000     0.547640000000     0.212326   
H2       H      0.059710000000     0.052130000000     0.407170000000     0.207314   
H3       H      0.051280000000     0.904760000000     0.553960000000     0.215651   
H4       H      0.903600000000     0.907750000000     0.409940000000     0.203665   
H5       H      0.072200000000     0.133820000000     0.494010000000     0.136588   
H6       H      0.145840000000     0.066180000000     0.486860000000     0.192996   
H7       H      0.133570000000     0.891550000000     0.461670000000     0.149129   
H8       H      0.072740000000     0.831190000000     0.495970000000     0.210054   
H9       H      0.887040000000     0.828130000000     0.482430000000     0.127004   
H10      H      0.813990000000     0.898690000000     0.468840000000     0.189103   
H11      H      0.843500000000     0.080460000000     0.463630000000     0.160289   
H12      H      0.898720000000     0.147120000000     0.497210000000     0.204169   
H13      H      0.038240000000     0.792550000000     0.465620000000     0.220723   
H14      H      0.778060000000     0.945680000000     0.484410000000     0.220857   
H15      H      0.940490000000     0.181550000000     0.469160000000     0.216678   
H16      H      0.181830000000     0.019120000000     0.471680000000     0.20781    
H17      H      0.906520000000     0.550560000000     0.058660000000     0.215404   
H18      H      0.904970000000     0.410830000000     0.907310000000     0.209472   
H19      H      0.057940000000     0.548000000000     0.909430000000     0.211154   
H20      H      0.053050000000     0.403680000000     0.059900000000     0.204274   
H21      H      0.824030000000     0.484340000000     0.895520000000     0.128558   
H22      H      0.896300000000     0.478780000000     0.814880000000     0.189488   
H23      H      0.067310000000     0.451620000000     0.832110000000     0.149022   
H24      H      0.150480000000     0.508340000000     0.906200000000     0.202953   
H25      H      0.137150000000     0.468360000000     0.072410000000     0.128049   
H26      H      0.066520000000     0.465990000000     0.150970000000     0.188653   
H27      H      0.891870000000     0.456050000000     0.134460000000     0.149563   
H28      H      0.813810000000     0.516910000000     0.062630000000     0.204364   
H29      H      0.143230000000     0.448530000000     0.899600000000     0.205969   
H30      H      0.017990000000     0.473870000000     0.187550000000     0.206537   
H31      H      0.817140000000     0.456330000000     0.068070000000     0.205974   
H32      H      0.945950000000     0.484480000000     0.779490000000     0.206119   
H33      H      0.410570000000     0.052120000000     0.058190000000     0.215969   
H34      H      0.556950000000     0.904810000000     0.059660000000     0.205845   
H35      H      0.414490000000     0.902660000000     0.910920000000     0.211687   
H36      H      0.551820000000     0.055480000000     0.905630000000     0.207728   
H37      H      0.488240000000     0.890900000000     0.141960000000     0.127126   
H38      H      0.485720000000     0.814200000000     0.076800000000     0.192032   
H39      H      0.513240000000     0.834030000000     0.897580000000     0.151014   
H40      H      0.458060000000     0.887520000000     0.831790000000     0.201033   
H41      H      0.476070000000     0.068620000000     0.827530000000     0.129577   
H42      H      0.486410000000     0.144110000000     0.891320000000     0.188583   
H43      H      0.504540000000     0.132520000000     0.064910000000     0.151401   
H44      H      0.461920000000     0.074910000000     0.130590000000     0.212523   
H45      H      0.499230000000     0.916040000000     0.796880000000     0.209278   
H46      H      0.469920000000     0.180450000000     0.937300000000     0.206729   
H47      H      0.499650000000     0.045160000000     0.168130000000     0.220372   
H48      H      0.490920000000     0.777020000000     0.029140000000     0.218384   
H49      H      0.600340000000     0.766660000000     0.983570000000     0.0281569  
H50      H      0.783710000000     0.607070000000     0.932160000000     0.0291013  
H51      H      0.769740000000     0.820140000000     0.963530000000     0.0563227  
H52      H      0.723050000000     0.670660000000     0.925690000000     0.0575288  
H53      H      0.664090000000     0.706410000000     0.979940000000     0.0533864  
H54      H      0.808180000000     0.761040000000     0.017720000000     0.0822483  
H55      H      0.704840000000     0.880260000000     0.968670000000     0.0348495  
H56      H      0.763470000000     0.370310000000     0.966540000000     0.0316775  
H57      H      0.591850000000     0.193750000000     0.003000000000     0.0264954  
H58      H      0.810260000000     0.201160000000     0.006510000000     0.0593965  
H59      H      0.651930000000     0.256080000000     0.006780000000     0.0557573  
H60      H      0.702150000000     0.308590000000     0.965320000000     0.0516973  
H61      H      0.761840000000     0.153210000000     0.961340000000     0.082918   
H62      H      0.871140000000     0.263470000000     0.004630000000     0.0436942  
H63      H      0.196580000000     0.590000000000     0.008630000000     0.0328779  
H64      H      0.266570000000     0.868840000000     0.010390000000     0.0330172  
H65      H      0.150750000000     0.759850000000     0.970050000000     0.0563745  
H66      H      0.203270000000     0.808980000000     0.013620000000     0.0581482  
H67      H      0.257940000000     0.651540000000     0.011040000000     0.0549509  
H68      H      0.305000000000     0.700910000000     0.961960000000     0.0793296  
H69      H      0.089650000000     0.697440000000     0.970040000000     0.045016   
H70      H      0.080690000000     0.256390000000     0.969740000000     0.0373016  
H71      H      0.356810000000     0.182240000000     0.944830000000     0.0236997  
H72      H      0.252630000000     0.296300000000     0.994570000000     0.0526929  
H73      H      0.293870000000     0.243230000000     0.941340000000     0.0558752  
H74      H      0.141180000000     0.191660000000     0.966770000000     0.0569158  
H75      H      0.196240000000     0.146480000000     0.017000000000     0.0819919  
H76      H      0.192200000000     0.359890000000     0.995300000000     0.0310431  
H77      H      0.594210000000     0.963340000000     0.768370000000     0.0265389  
H78      H      0.870540000000     0.950160000000     0.693610000000     0.0311879  
H79      H      0.764530000000     0.984910000000     0.816100000000     0.0587361  
H80      H      0.810140000000     0.942540000000     0.757380000000     0.0578869  
H81      H      0.656400000000     0.963470000000     0.706010000000     0.0553167  
H82      H      0.707200000000     0.019930000000     0.667370000000     0.0819372  
H83      H      0.701700000000     0.981080000000     0.878040000000     0.0477723  
H84      H      0.364020000000     0.999670000000     0.770500000000     0.032231   
H85      H      0.190820000000     0.960680000000     0.600690000000     0.0312416  
H86      H      0.197420000000     0.957100000000     0.821120000000     0.0561063  
H87      H      0.252110000000     0.958280000000     0.661560000000     0.0555916  
H88      H      0.301350000000     0.000840000000     0.710270000000     0.0531758  
H89      H      0.145160000000     0.996900000000     0.770470000000     0.0799435  
H90      H      0.260800000000     0.959530000000     0.881230000000     0.036009   
H91      H      0.194990000000     0.947400000000     0.370730000000     0.0254432  
H92      H      0.270680000000     0.939020000000     0.093180000000     0.034936   
H93      H      0.149020000000     0.975900000000     0.199420000000     0.0560565  
H94      H      0.207130000000     0.929980000000     0.153870000000     0.0595861  
H95      H      0.257180000000     0.943760000000     0.308190000000     0.0555061  
H96      H      0.295760000000     0.002430000000     0.257930000000     0.0829781  
H97      H      0.087250000000     0.976910000000     0.262520000000     0.0316565  
H98      H      0.704240000000     0.978300000000     0.085100000000     0.0381358  
H99      H      0.863360000000     0.931750000000     0.276670000000     0.0241837  
H100     H      0.661000000000     0.997560000000     0.258940000000     0.0563955  
H101     H      0.800590000000     0.930260000000     0.214870000000     0.0573899  
H102     H      0.768560000000     0.981370000000     0.144760000000     0.0566567  
H103     H      0.731620000000     0.054970000000     0.280470000000     0.0812458  
H104     H      0.597430000000     0.993690000000     0.198810000000     0.0302881  
H105     H      0.984030000000     0.087030000000     0.701190000000     0.0503475  
H106     H      0.011800000000     0.363910000000     0.772830000000     0.0239841  
H107     H      0.972970000000     0.260160000000     0.654300000000     0.051238   
H108     H      0.014160000000     0.303410000000     0.710470000000     0.0555901  
H109     H      0.986480000000     0.147060000000     0.764110000000     0.0596656  
H110     H      0.944440000000     0.202440000000     0.809080000000     0.0814502  
H111     H      0.974510000000     0.199050000000     0.592060000000     0.0290882  
H112     H      0.990140000000     0.702170000000     0.882360000000     0.038126   
H113     H      0.946100000000     0.877250000000     0.701330000000     0.031996   
H114     H      0.952870000000     0.663500000000     0.712040000000     0.0552375  
H115     H      0.941400000000     0.816670000000     0.766190000000     0.0586264  
H116     H      0.988870000000     0.767270000000     0.822110000000     0.0561665  
H117     H      0.011450000000     0.712510000000     0.672160000000     0.082961   
H118     H      0.956450000000     0.599250000000     0.772280000000     0.0270155  
H119     H      0.017850000000     0.868770000000     0.270280000000     0.032527   
H120     H      0.984250000000     0.590980000000     0.199870000000     0.0271445  
H121     H      0.948600000000     0.707650000000     0.305040000000     0.0518392  
H122     H      0.985170000000     0.651020000000     0.261660000000     0.0550292  
H123     H      0.024750000000     0.807690000000     0.208900000000     0.0546095  
H124     H      0.997870000000     0.762820000000     0.150760000000     0.0820608  
H125     H      0.947580000000     0.768320000000     0.367240000000     0.0288777  
H126     H      0.974500000000     0.257670000000     0.085240000000     0.0342596  
H127     H      0.028770000000     0.100330000000     0.275180000000     0.0237056  
H128     H      0.956150000000     0.297970000000     0.259310000000     0.0543766  
H129     H      0.026550000000     0.163870000000     0.212860000000     0.0590308  
H130     H      0.970500000000     0.192450000000     0.145130000000     0.0562356  
H131     H      0.898440000000     0.225050000000     0.281310000000     0.0808363  
H132     H      0.960530000000     0.362700000000     0.198810000000     0.0257449  
N1       N      0.831350000000     0.647100000000     0.977880000000    -0.204939   
N2       N      0.647730000000     0.828090000000     0.976650000000    -0.189501   
N3       N      0.641290000000     0.136420000000     0.981800000000    -0.199331   
N4       N      0.822220000000     0.321710000000     0.985180000000    -0.183238   
N5       N      0.323130000000     0.819900000000     0.986180000000    -0.19844    
N6       N      0.138280000000     0.638780000000     0.989090000000    -0.183588   
N7       N      0.313550000000     0.128410000000     0.982050000000    -0.203518   
N8       N      0.131800000000     0.313070000000     0.982380000000    -0.188143   
N9       N      0.823550000000     0.987180000000     0.642820000000    -0.204704   
N10      N      0.643080000000     0.973620000000     0.827840000000    -0.188297   
N11      N      0.131310000000     0.978900000000     0.649080000000    -0.197136   
N12      N      0.317460000000     0.979410000000     0.830640000000    -0.184066   
N13      N      0.320560000000     0.974070000000     0.140680000000    -0.202806   
N14      N      0.136670000000     0.963490000000     0.321450000000    -0.190875   
N15      N      0.832700000000     0.992510000000     0.314700000000    -0.20127    
N16      N      0.645740000000     0.985530000000     0.137160000000    -0.184024   
N17      N      0.978780000000     0.318520000000     0.827980000000    -0.20069    
N18      N      0.979710000000     0.138190000000     0.641620000000    -0.183618   
N19      N      0.979090000000     0.829390000000     0.648850000000    -0.202821   
N20      N      0.974380000000     0.645640000000     0.831730000000    -0.187765   
N21      N      0.992120000000     0.640780000000     0.139170000000    -0.198694   
N22      N      0.982440000000     0.823130000000     0.323450000000    -0.187798   
N23      N      0.966660000000     0.127510000000     0.314530000000    -0.205732   
N24      N      0.968370000000     0.315170000000     0.137450000000    -0.188877   
O1       O      0.849280000000     0.994900000000     0.396120000000    -0.337376   
O2       O      0.910340000000     0.979320000000     0.340920000000    -0.348298   
O3       O      0.982150000000     0.117800000000     0.560540000000    -0.355675   
O4       O      0.978640000000     0.058080000000     0.618960000000    -0.339018   
O5       O      0.967360000000     0.110490000000     0.395770000000    -0.339653   
O6       O      0.983650000000     0.050730000000     0.340530000000    -0.356217   
O7       O      0.843830000000     0.987060000000     0.561790000000    -0.341777   
O8       O      0.903140000000     0.985120000000     0.619180000000    -0.353507   
O9       O      0.824780000000     0.054020000000     0.479460000000    -0.304163   
O10      O      0.810030000000     0.932510000000     0.477250000000    -0.516178   
O11      O      0.930510000000     0.150440000000     0.482300000000    -0.503591   
O12      O      0.047440000000     0.143120000000     0.469640000000    -0.342505   
O13      O      0.928990000000     0.037110000000     0.430810000000    -0.4578     
O14      O      0.926320000000     0.038970000000     0.527660000000    -0.614949   
O15      O      0.976370000000     0.847920000000     0.567620000000    -0.34022    
O16      O      0.976760000000     0.908960000000     0.623080000000    -0.3455     
O17      O      0.116260000000     0.968800000000     0.402240000000    -0.367818   
O18      O      0.057340000000     0.972690000000     0.344560000000    -0.356888   
O19      O      0.113870000000     0.979000000000     0.567040000000    -0.350057   
O20      O      0.051820000000     0.980590000000     0.622480000000    -0.325518   
O21      O      0.974040000000     0.843580000000     0.403870000000    -0.360901   
O22      O      0.986590000000     0.902780000000     0.346160000000    -0.348699   
O23      O      0.042090000000     0.823400000000     0.481450000000    -0.504825   
O24      O      0.919200000000     0.813120000000     0.489050000000    -0.318315   
O25      O      0.138840000000     0.911500000000     0.490850000000    -0.337114   
O26      O      0.150030000000     0.032030000000     0.479980000000    -0.516359   
O27      O      0.032170000000     0.925010000000     0.532290000000    -0.613832   
O28      O      0.035140000000     0.922900000000     0.436440000000    -0.466633   
O29      O      0.921390000000     0.928890000000     0.534810000000    -0.475355   
O30      O      0.039180000000     0.033490000000     0.429040000000    -0.620058   
O31      O      0.923780000000     0.926710000000     0.430850000000    -0.629052   
O32      O      0.036820000000     0.036050000000     0.533640000000    -0.478193   
O33      O      0.973490000000     0.396280000000     0.118900000000    -0.366082   
O34      O      0.974560000000     0.340590000000     0.057900000000    -0.352493   
O35      O      0.848580000000     0.565910000000     0.975750000000    -0.361696   
O36      O      0.909680000000     0.620050000000     0.985750000000    -0.333313   
O37      O      0.843100000000     0.402270000000     0.981250000000    -0.357834   
O38      O      0.902520000000     0.343840000000     0.986600000000    -0.335625   
O39      O      0.988400000000     0.559670000000     0.120060000000    -0.352343   
O40      O      0.985580000000     0.616750000000     0.059430000000    -0.320848   
O41      O      0.910830000000     0.485820000000     0.139650000000    -0.338208   
O42      O      0.031990000000     0.471410000000     0.155180000000    -0.51266    
O43      O      0.826250000000     0.486000000000     0.051300000000    -0.51449    
O44      O      0.810070000000     0.484780000000     0.928950000000    -0.323845   
O45      O      0.924090000000     0.432310000000     0.038610000000    -0.469274   
O46      O      0.926130000000     0.529040000000     0.038740000000    -0.611789   
O47      O      0.117700000000     0.557980000000     0.991080000000    -0.354316   
O48      O      0.058450000000     0.616270000000     0.983190000000    -0.337209   
O49      O      0.981500000000     0.399440000000     0.847450000000    -0.363077   
O50      O      0.978170000000     0.342270000000     0.908230000000    -0.331656   
O51      O      0.975180000000     0.564180000000     0.849960000000    -0.353927   
O52      O      0.982690000000     0.619530000000     0.910650000000    -0.348956   
O53      O      0.113490000000     0.394080000000     0.985590000000    -0.364476   
O54      O      0.052340000000     0.339080000000     0.981250000000    -0.349294   
O55      O      0.136010000000     0.478170000000     0.916910000000    -0.513717   
O56      O      0.151300000000     0.471760000000     0.039200000000    -0.323808   
O57      O      0.052220000000     0.484380000000     0.829530000000    -0.340067   
O58      O      0.931130000000     0.481570000000     0.811500000000    -0.511763   
O59      O      0.037500000000     0.527150000000     0.929240000000    -0.611685   
O60      O      0.035730000000     0.430300000000     0.929100000000    -0.468691   
O61      O      0.037030000000     0.529250000000     0.040760000000    -0.475541   
O62      O      0.924990000000     0.430800000000     0.927410000000    -0.626763   
O63      O      0.034170000000     0.425690000000     0.039740000000    -0.621806   
O64      O      0.927320000000     0.534260000000     0.927980000000    -0.473983   
O65      O      0.560110000000     0.116310000000     0.981650000000    -0.359532   
O66      O      0.617790000000     0.056340000000     0.982080000000    -0.330481   
O67      O      0.401090000000     0.976220000000     0.120360000000    -0.341195   
O68      O      0.344240000000     0.974610000000     0.060660000000    -0.343419   
O69      O      0.564530000000     0.981770000000     0.119000000000    -0.355636   
O70      O      0.620900000000     0.982670000000     0.057260000000    -0.341885   
O71      O      0.395060000000     0.111250000000     0.978900000000    -0.355626   
O72      O      0.340820000000     0.049560000000     0.986060000000    -0.335128   
O73      O      0.473300000000     0.136370000000     0.047730000000    -0.339328   
O74      O      0.478160000000     0.148470000000     0.925340000000    -0.514043   
O75      O      0.481150000000     0.046340000000     0.138440000000    -0.50616    
O76      O      0.485060000000     0.923880000000     0.155740000000    -0.317817   
O77      O      0.528740000000     0.035350000000     0.037420000000    -0.468499   
O78      O      0.432100000000     0.032510000000     0.038240000000    -0.610341   
O79      O      0.398500000000     0.982920000000     0.849120000000    -0.352988   
O80      O      0.342310000000     0.975000000000     0.910580000000    -0.342602   
O81      O      0.566880000000     0.846240000000     0.982670000000    -0.367046   
O82      O      0.622000000000     0.907470000000     0.979540000000    -0.351286   
O83      O      0.403620000000     0.841530000000     0.987880000000    -0.333933   
O84      O      0.344950000000     0.900550000000     0.986320000000    -0.345847   
O85      O      0.562500000000     0.975740000000     0.848370000000    -0.362244   
O86      O      0.619540000000     0.978560000000     0.907860000000    -0.345076   
O87      O      0.479210000000     0.914800000000     0.826050000000    -0.512435   
O88      O      0.482210000000     0.036190000000     0.813340000000    -0.328685   
O89      O      0.486050000000     0.823020000000     0.918750000000    -0.319558   
O90      O      0.487630000000     0.809440000000     0.042000000000    -0.513473   
O91      O      0.434850000000     0.922930000000     0.930330000000    -0.616909   
O92      O      0.531050000000     0.925350000000     0.929300000000    -0.466856   
O93      O      0.427220000000     0.033810000000     0.927970000000    -0.474767   
O94      O      0.535190000000     0.924240000000     0.039830000000    -0.626815   
O95      O      0.531360000000     0.035440000000     0.926260000000    -0.623888   
O96      O      0.431520000000     0.922170000000     0.042050000000    -0.477182   
Zr1      Zr     0.879880000000     0.984140000000     0.479970000000     1.30364    
Zr2      Zr     0.985280000000     0.081510000000     0.478880000000     1.29267    
Zr3      Zr     0.975270000000     0.880700000000     0.484670000000     1.30369    
Zr4      Zr     0.081140000000     0.978980000000     0.483820000000     1.29269    
Zr5      Zr     0.982870000000     0.978530000000     0.390690000000     1.2757     
Zr6      Zr     0.978410000000     0.982770000000     0.573430000000     1.272      
Zr7      Zr     0.980770000000     0.478490000000     0.084860000000     1.29579    
Zr8      Zr     0.880460000000     0.482910000000     0.981680000000     1.29811    
Zr9      Zr     0.081230000000     0.476920000000     0.986170000000     1.29586    
Zr10     Zr     0.980990000000     0.481200000000     0.883000000000     1.29348    
Zr11     Zr     0.978670000000     0.388420000000     0.983430000000     1.27297    
Zr12     Zr     0.983040000000     0.570900000000     0.984470000000     1.27793    
Zr13     Zr     0.478620000000     0.079600000000     0.980440000000     1.29232    
Zr14     Zr     0.482520000000     0.977700000000     0.084720000000     1.30355    
Zr15     Zr     0.480680000000     0.980690000000     0.883090000000     1.29749    
Zr16     Zr     0.484340000000     0.878490000000     0.987230000000     1.30414    
Zr17     Zr     0.572860000000     0.980880000000     0.982850000000     1.27578    
Zr18     Zr     0.390210000000     0.976480000000     0.985100000000     1.27124    


