data_structure

_audit_creation_method RASPA-1.0
_audit_creation_date 2023-6-5
_audit_author_name 'Poobodin Mano'

_cell_length_a    27.4854
_cell_length_b    27.5598
_cell_length_c    27.3886
_cell_angle_alpha 89.2565
_cell_angle_beta  89.2563
_cell_angle_gamma 89.2563
_cell_volume      20741.5

_symmetry_cell_setting          triclinic
_symmetry_space_group_name_Hall 'P 1'
_symmetry_space_group_name_H-M  'P 1'
_symmetry_Int_Tables_number     1

_symmetry_equiv_pos_as_xyz 'x,y,z'

loop_
_atom_site_label
_atom_site_type_symbol
_atom_site_fract_x
_atom_site_fract_y
_atom_site_fract_z
_atom_site_charge
C1       C      0.854460000000     0.981740000000     0.367590000000     0.379082   
C2       C      0.974770000000     0.093710000000     0.616430000000     0.384636   
C3       C      0.967600000000     0.098810000000     0.361350000000     0.390424   
C4       C      0.873630000000     0.984380000000     0.623510000000     0.389599   
C5       C      0.989270000000     0.856110000000     0.611480000000     0.396225   
C6       C      0.094300000000     0.975830000000     0.352230000000     0.387431   
C7       C      0.109660000000     0.982650000000     0.605210000000     0.384092   
C8       C      0.979240000000     0.858900000000     0.359010000000     0.376847   
C9       C      0.979320000000     0.351180000000     0.107060000000     0.392729   
C10      C      0.862230000000     0.603790000000     0.976170000000     0.397725   
C11      C      0.862300000000     0.350760000000     0.992250000000     0.378272   
C12      C      0.979730000000     0.604540000000     0.105490000000     0.381706   
C13      C      0.102570000000     0.603270000000     0.988060000000     0.379119   
C14      C      0.979580000000     0.349500000000     0.866230000000     0.375385   
C15      C      0.984200000000     0.602370000000     0.864340000000     0.397303   
C16      C      0.102170000000     0.351080000000     0.979000000000     0.39585    
C17      C      0.605730000000     0.099380000000     0.989340000000     0.378297   
C18      C      0.348000000000     0.974710000000     0.098090000000     0.389434   
C19      C      0.601020000000     0.977330000000     0.113360000000     0.379385   
C20      C      0.352950000000     0.093680000000     0.969940000000     0.38792    
C21      C      0.364840000000     0.969240000000     0.856950000000     0.386469   
C22      C      0.610750000000     0.859440000000     0.995170000000     0.391372   
C23      C      0.357590000000     0.855190000000     0.981080000000     0.383613   
C24      C      0.616780000000     0.981350000000     0.871780000000     0.383078   
C25      C      0.841070000000     0.688680000000     0.966080000000     0.0274193  
C26      C      0.779980000000     0.629990000000     0.981020000000     0.0688406  
C27      C      0.807230000000     0.725940000000     0.975250000000    -0.0539025  
C28      C      0.727910000000     0.801050000000     0.970140000000    -0.0863568  
C29      C      0.744840000000     0.666360000000     0.985650000000    -0.0761682  
C30      C      0.720910000000     0.754570000000     0.990590000000     0.0402283  
C31      C      0.758270000000     0.715230000000     0.984710000000     0.0260551  
C32      C      0.691670000000     0.836520000000     0.974440000000     0.0738178  
C33      C      0.640440000000     0.781080000000     0.016600000000     0.0743546  
C34      C      0.676910000000     0.745660000000     0.015540000000    -0.08512    
C35      C      0.887050000000     0.702890000000     0.941090000000     0.293581   
C36      C      0.840240000000     0.264850000000     0.992240000000     0.0216509  
C37      C      0.779620000000     0.326580000000     0.998820000000     0.0612551  
C38      C      0.803640000000     0.229710000000     0.989550000000    -0.0494916  
C39      C      0.724100000000     0.156730000000     0.008000000000    -0.0838575  
C40      C      0.742880000000     0.291930000000     0.998930000000    -0.0749479  
C41      C      0.715050000000     0.204870000000     0.992620000000     0.0379485  
C42      C      0.754240000000     0.242600000000     0.993460000000     0.0228564  
C43      C      0.687520000000     0.121940000000     0.006020000000     0.0695904  
C44      C      0.631760000000     0.181050000000     0.976420000000     0.0669702  
C45      C      0.667920000000     0.216400000000     0.976440000000    -0.0848773  
C46      C      0.890770000000     0.245470000000     0.993910000000     0.290984   
C47      C      0.330040000000     0.774840000000     0.960530000000     0.0194959  
C48      C      0.275930000000     0.832020000000     0.997190000000     0.063509   
C49      C      0.293710000000     0.739270000000     0.963930000000    -0.0475951  
C50      C      0.221290000000     0.662970000000     0.994770000000    -0.085902   
C51      C      0.239120000000     0.797360000000     0.000320000000    -0.0696085  
C52      C      0.208970000000     0.711990000000     0.986950000000     0.0403515  
C53      C      0.247730000000     0.749970000000     0.984150000000     0.0208683  
C54      C      0.185380000000     0.627450000000     0.995180000000     0.067099   
C55      C      0.124280000000     0.687290000000     0.982140000000     0.0690917  
C56      C      0.159490000000     0.723810000000     0.980960000000    -0.083891   
C57      C      0.373780000000     0.762820000000     0.930410000000     0.296735   
C58      C      0.268390000000     0.118000000000     0.954620000000     0.0267356  
C59      C      0.326940000000     0.174410000000     0.981430000000     0.0620205  
C60      C      0.233600000000     0.155600000000     0.952780000000    -0.0495664  
C61      C      0.158230000000     0.230250000000     0.978660000000    -0.0876112  
C62      C      0.292180000000     0.211310000000     0.982270000000    -0.0762268  
C63      C      0.207070000000     0.241210000000     0.968790000000     0.0435592  
C64      C      0.244860000000     0.202330000000     0.967580000000     0.0240586  
C65      C      0.123430000000     0.267240000000     0.980230000000     0.0796029  
C66      C      0.184070000000     0.326030000000     0.964560000000     0.0735923  
C67      C      0.219520000000     0.289800000000     0.960770000000    -0.087508   
C68      C      0.250130000000     0.069960000000     0.939590000000     0.287755   
C69      C      0.811330000000     0.030290000000     0.663690000000     0.0423254  
C70      C      0.845560000000     0.959440000000     0.701020000000     0.0710317  
C71      C      0.774650000000     0.031730000000     0.699770000000    -0.0560722  
C72      C      0.684860000000     0.997430000000     0.756860000000    -0.087877   
C73      C      0.810560000000     0.960830000000     0.738190000000    -0.0777538  
C74      C      0.732910000000     0.994310000000     0.772710000000     0.0401241  
C75      C      0.773510000000     0.996040000000     0.736740000000     0.0253123  
C76      C      0.646630000000     0.992500000000     0.790400000000     0.0689302  
C77      C      0.702360000000     0.982870000000     0.855310000000     0.069889   
C78      C      0.741530000000     0.986910000000     0.822530000000    -0.0867149  
C79      C      0.817690000000     0.073410000000     0.631360000000     0.234622   
C80      C      0.340460000000     0.953700000000     0.773460000000     0.0233148  
C81      C      0.283260000000     0.981120000000     0.832940000000     0.068212   
C82      C      0.304630000000     0.958300000000     0.737280000000    -0.047454   
C83      C      0.230060000000     0.988160000000     0.661830000000    -0.085186   
C84      C      0.247390000000     0.986240000000     0.797740000000    -0.0707422  
C85      C      0.218670000000     0.978810000000     0.711170000000     0.0407148  
C86      C      0.257540000000     0.975050000000     0.748980000000     0.0245546  
C87      C      0.193300000000     0.989720000000     0.626930000000     0.0703126  
C88      C      0.133610000000     0.976050000000     0.688440000000     0.0699731  
C89      C      0.169470000000     0.972740000000     0.723950000000    -0.081201   
C90      C      0.386370000000     0.928470000000     0.759040000000     0.296567   
C91      C      0.266800000000     0.998540000000     0.123580000000     0.0215928  
C92      C      0.314410000000     0.942970000000     0.170870000000     0.0671125  
C93      C      0.227950000000     0.993260000000     0.157020000000    -0.0506648  
C94      C      0.146200000000     0.965570000000     0.228430000000    -0.0871089  
C95      C      0.276770000000     0.937980000000     0.204850000000    -0.0762963  
C96      C      0.196100000000     0.965030000000     0.238290000000     0.0409147  
C97      C      0.233250000000     0.963910000000     0.198630000000     0.0231544  
C98      C      0.112360000000     0.969260000000     0.266850000000     0.0708216  
C99      C      0.176310000000     0.971890000000     0.324030000000     0.0703372  
C100     C      0.210830000000     0.968300000000     0.286760000000    -0.0883809  
C101     C      0.262800000000     0.039230000000     0.087750000000     0.300571   
C102     C      0.627640000000     0.955980000000     0.195200000000     0.0168144  
C103     C      0.679650000000     0.998410000000     0.139840000000     0.0619698  
C104     C      0.662740000000     0.959810000000     0.231960000000    -0.0469228  
C105     C      0.795230000000     0.980490000000     0.247880000000    -0.0855055  
C106     C      0.715170000000     0.002050000000     0.175640000000    -0.0715124  
C107     C      0.745770000000     0.984140000000     0.260750000000     0.0399453  
C108     C      0.707170000000     0.982700000000     0.222560000000     0.0202345  
C109     C      0.830860000000     0.980420000000     0.283900000000     0.068982   
C110     C      0.770360000000     0.987210000000     0.345780000000     0.0676623  
C111     C      0.733760000000     0.987920000000     0.310570000000    -0.085073   
C112     C      0.585980000000     0.923690000000     0.206310000000     0.300574   
C113     C      0.936860000000     0.165400000000     0.650370000000     0.0456568  
C114     C      0.994330000000     0.119170000000     0.696010000000     0.0699919  
C115     C      0.937320000000     0.201930000000     0.685960000000    -0.0556675  
C116     C      0.969280000000     0.286120000000     0.749050000000    -0.0842477  
C117     C      0.994690000000     0.154480000000     0.732320000000    -0.0763022  
C118     C      0.969940000000     0.237180000000     0.763820000000     0.0381497  
C119     C      0.967180000000     0.197350000000     0.727040000000     0.0274772  
C120     C      0.972920000000     0.323020000000     0.783560000000     0.0671538  
C121     C      0.977760000000     0.264730000000     0.847520000000     0.0704217  
C122     C      0.974330000000     0.226920000000     0.813920000000    -0.0823239  
C123     C      0.900660000000     0.170660000000     0.610750000000     0.241618   
C124     C      0.021290000000     0.824320000000     0.686690000000     0.0216789  
C125     C      0.958990000000     0.783440000000     0.644250000000     0.0677392  
C126     C      0.018520000000     0.789650000000     0.724410000000    -0.0487722  
C127     C      0.991340000000     0.723240000000     0.808310000000    -0.0885805  
C128     C      0.955980000000     0.748460000000     0.680930000000    -0.0760599  
C129     C      0.985760000000     0.712380000000     0.759000000000     0.044889   
C130     C      0.986080000000     0.751190000000     0.721420000000     0.0220068  
C131     C      0.991750000000     0.685940000000     0.842980000000     0.0834119  
C132     C      0.980820000000     0.627630000000     0.781200000000     0.0764641  
C133     C      0.981000000000     0.663920000000     0.745560000000    -0.088965   
C134     C      0.063390000000     0.857550000000     0.686860000000     0.296821   
C135     C      0.954390000000     0.685160000000     0.131820000000     0.0202378  
C136     C      0.002140000000     0.633590000000     0.182930000000     0.0664255  
C137     C      0.957370000000     0.722460000000     0.166520000000    -0.0483406  
C138     C      0.979990000000     0.740290000000     0.298680000000    -0.0846306  
C139     C      0.004760000000     0.669820000000     0.218070000000    -0.0742746  
C140     C      0.982130000000     0.753290000000     0.249050000000     0.0386253  
C141     C      0.982230000000     0.715090000000     0.210370000000     0.0218331  
C142     C      0.979130000000     0.775950000000     0.334570000000     0.0659807  
C143     C      0.981830000000     0.837960000000     0.274100000000     0.0679245  
C144     C      0.983060000000     0.803050000000     0.237130000000    -0.0846297  
C145     C      0.919020000000     0.693390000000     0.091820000000     0.297294   
C146     C      0.994140000000     0.268420000000     0.133690000000     0.0286718  
C147     C      0.952720000000     0.325110000000     0.184980000000     0.0679548  
C148     C      0.986440000000     0.231810000000     0.168780000000    -0.0501582  
C149     C      0.965980000000     0.217620000000     0.300640000000    -0.0881666  
C150     C      0.945080000000     0.289380000000     0.220390000000    -0.0768503  
C151     C      0.959170000000     0.204880000000     0.251960000000     0.0411503  
C152     C      0.962310000000     0.242190000000     0.212710000000     0.0247024  
C153     C      0.967340000000     0.181820000000     0.336800000000     0.0705667  
C154     C      0.954840000000     0.120880000000     0.278040000000     0.072253   
C155     C      0.952540000000     0.155940000000     0.240990000000    -0.0876168  
C156     C      0.027300000000     0.255960000000     0.092360000000     0.298425   
H1       H      0.909280000000     0.051140000000     0.559350000000     0.226505   
H2       H      0.051170000000     0.055250000000     0.408690000000     0.201512   
H3       H      0.062310000000     0.903020000000     0.550020000000     0.219024   
H4       H      0.903110000000     0.902920000000     0.418630000000     0.203369   
H5       H      0.065170000000     0.134470000000     0.464130000000     0.126418   
H6       H      0.143930000000     0.070460000000     0.469140000000     0.189589   
H7       H      0.131340000000     0.893430000000     0.453540000000     0.148613   
H8       H      0.065120000000     0.811430000000     0.514590000000     0.206226   
H9       H      0.897010000000     0.819510000000     0.490520000000     0.128672   
H10      H      0.818820000000     0.886920000000     0.482230000000     0.188374   
H11      H      0.828460000000     0.064130000000     0.481060000000     0.139595   
H12      H      0.886060000000     0.132470000000     0.498680000000     0.198657   
H13      H      0.067490000000     0.816310000000     0.453660000000     0.205019   
H14      H      0.791030000000     0.920710000000     0.524900000000     0.210058   
H15      H      0.926720000000     0.173600000000     0.479960000000     0.211199   
H16      H      0.182670000000     0.023070000000     0.469390000000     0.206732   
H17      H      0.906610000000     0.547060000000     0.060290000000     0.218407   
H18      H      0.906180000000     0.405060000000     0.911890000000     0.207693   
H19      H      0.057170000000     0.545080000000     0.909570000000     0.213074   
H20      H      0.057800000000     0.403880000000     0.061660000000     0.210721   
H21      H      0.824600000000     0.472790000000     0.899340000000     0.128024   
H22      H      0.893590000000     0.476540000000     0.819520000000     0.189453   
H23      H      0.065490000000     0.442650000000     0.833300000000     0.148405   
H24      H      0.159700000000     0.509100000000     0.914330000000     0.205028   
H25      H      0.137720000000     0.474500000000     0.074340000000     0.128532   
H26      H      0.071380000000     0.464980000000     0.150790000000     0.188667   
H27      H      0.895130000000     0.453540000000     0.137030000000     0.148101   
H28      H      0.813360000000     0.514120000000     0.064100000000     0.203684   
H29      H      0.140850000000     0.455080000000     0.895560000000     0.205518   
H30      H      0.025540000000     0.481930000000     0.187910000000     0.207164   
H31      H      0.819330000000     0.454260000000     0.073590000000     0.204692   
H32      H      0.942380000000     0.479300000000     0.782380000000     0.205457   
H33      H      0.406170000000     0.051640000000     0.053500000000     0.21855    
H34      H      0.551290000000     0.903820000000     0.067570000000     0.217617   
H35      H      0.420800000000     0.899360000000     0.909020000000     0.223429   
H36      H      0.557620000000     0.052470000000     0.911230000000     0.206897   
H37      H      0.468440000000     0.894310000000     0.148930000000     0.135264   
H38      H      0.483140000000     0.815000000000     0.082510000000     0.193313   
H39      H      0.525770000000     0.824140000000     0.910680000000     0.15022    
H40      H      0.486790000000     0.876240000000     0.841680000000     0.209632   
H41      H      0.494900000000     0.061830000000     0.825140000000     0.127684   
H42      H      0.488110000000     0.141400000000     0.890730000000     0.18907    
H43      H      0.502620000000     0.129910000000     0.065790000000     0.150092   
H44      H      0.437160000000     0.060360000000     0.146320000000     0.206532   
H45      H      0.514880000000     0.911400000000     0.800150000000     0.212957   
H46      H      0.477570000000     0.178510000000     0.937720000000     0.205662   
H47      H      0.497810000000     0.064970000000     0.145840000000     0.208049   
H48      H      0.476880000000     0.776600000000     0.036200000000     0.21476    
H49      H      0.698290000000     0.871610000000     0.957360000000     0.0291446  
H50      H      0.767650000000     0.592900000000     0.984800000000     0.0297459  
H51      H      0.670020000000     0.711490000000     0.034050000000     0.0537498  
H52      H      0.707350000000     0.655550000000     0.990080000000     0.051114   
H53      H      0.760230000000     0.810220000000     0.949330000000     0.0544271  
H54      H      0.819200000000     0.763110000000     0.972710000000     0.0542662  
H55      H      0.606550000000     0.772290000000     0.035230000000     0.0256729  
H56      H      0.940310000000     0.753290000000     0.938080000000     0.182437   
H57      H      0.696570000000     0.085400000000     0.018300000000     0.0293201  
H58      H      0.767830000000     0.364080000000     0.002350000000     0.0318077  
H59      H      0.658710000000     0.252400000000     0.963020000000     0.0514091  
H60      H      0.705640000000     0.304320000000     0.003690000000     0.0503309  
H61      H      0.759050000000     0.145600000000     0.022300000000     0.0538249  
H62      H      0.814270000000     0.192040000000     0.985060000000     0.0536927  
H63      H      0.596110000000     0.192010000000     0.963460000000     0.0239806  
H64      H      0.940830000000     0.204420000000     0.957490000000     0.182504   
H65      H      0.197270000000     0.590200000000     0.001120000000     0.0305675  
H66      H      0.267650000000     0.867650000000     0.011740000000     0.0390712  
H67      H      0.147860000000     0.760940000000     0.974250000000     0.0552318  
H68      H      0.204400000000     0.807630000000     0.016480000000     0.0525921  
H69      H      0.258650000000     0.651770000000     0.000840000000     0.0567064  
H70      H      0.300600000000     0.703930000000     0.948160000000     0.0551745  
H71      H      0.086690000000     0.698270000000     0.976760000000     0.032686   
H72      H      0.417030000000     0.787040000000     0.874750000000     0.189968   
H73      H      0.086080000000     0.257000000000     0.987330000000     0.0350117  
H74      H      0.362890000000     0.184060000000     0.993660000000     0.0300232  
H75      H      0.256390000000     0.300130000000     0.951480000000     0.0536349  
H76      H      0.302610000000     0.246530000000     0.995350000000     0.0508174  
H77      H      0.146660000000     0.193470000000     0.986090000000     0.0569789  
H78      H      0.197330000000     0.148030000000     0.940060000000     0.0581515  
H79      H      0.195560000000     0.363160000000     0.958610000000     0.0280269  
H80      H      0.206060000000     0.038530000000     0.890430000000     0.17835    
H81      H      0.610020000000     0.994860000000     0.776210000000     0.0288312  
H82      H      0.872140000000     0.929950000000     0.701540000000     0.0298384  
H83      H      0.778330000000     0.984370000000     0.836120000000     0.0549607  
H84      H      0.811110000000     0.933000000000     0.766490000000     0.0530557  
H85      H      0.676780000000     0.002490000000     0.718500000000     0.0578334  
H86      H      0.748090000000     0.061180000000     0.699930000000     0.0573134  
H87      H      0.710640000000     0.977200000000     0.893570000000     0.0294879  
H88      H      0.783160000000     0.117010000000     0.581120000000     0.166572   
H89      H      0.204090000000     0.996380000000     0.589250000000     0.0280532  
H90      H      0.273080000000     0.990400000000     0.869940000000     0.043172   
H91      H      0.158230000000     0.964400000000     0.761070000000     0.0602123  
H92      H      0.211970000000     0.999780000000     0.809090000000     0.0515553  
H93      H      0.267160000000     0.994470000000     0.649890000000     0.056161   
H94      H      0.312980000000     0.946260000000     0.700580000000     0.0563831  
H95      H      0.096270000000     0.971150000000     0.700530000000     0.0434422  
H96      H      0.438380000000     0.923780000000     0.705890000000     0.180952   
H97      H      0.074080000000     0.969420000000     0.257790000000     0.0297935  
H98      H      0.347350000000     0.921730000000     0.177040000000     0.0304746  
H99      H      0.249000000000     0.969260000000     0.296020000000     0.0539693  
H100     H      0.282080000000     0.914330000000     0.236280000000     0.0515575  
H101     H      0.133360000000     0.963030000000     0.191340000000     0.0565746  
H102     H      0.195330000000     0.015450000000     0.152970000000     0.0578895  
H103     H      0.189900000000     0.974600000000     0.360870000000     0.0248717  
H104     H      0.297660000000     0.098290000000     0.060570000000     0.187919   
H105     H      0.868440000000     0.977120000000     0.271740000000     0.0300413  
H106     H      0.687480000000     0.015140000000     0.104580000000     0.0317275  
H107     H      0.696230000000     0.991690000000     0.322550000000     0.0558953  
H108     H      0.748550000000     0.020710000000     0.166500000000     0.0499274  
H109     H      0.806690000000     0.976560000000     0.210160000000     0.0534973  
H110     H      0.656480000000     0.942170000000     0.267050000000     0.0550897  
H111     H      0.759100000000     0.990040000000     0.383720000000     0.0309245  
H112     H      0.535910000000     0.905350000000     0.258310000000     0.187002   
H113     H      0.972300000000     0.360140000000     0.769990000000     0.0252443  
H114     H      0.018200000000     0.087830000000     0.700700000000     0.0334852  
H115     H      0.974570000000     0.189810000000     0.827410000000     0.0554379  
H116     H      0.018150000000     0.148910000000     0.763410000000     0.0536942  
H117     H      0.966760000000     0.296080000000     0.710780000000     0.0550439  
H118     H      0.913460000000     0.233350000000     0.682120000000     0.0563906  
H119     H      0.981000000000     0.254700000000     0.885740000000     0.0347149  
H120     H      0.877640000000     0.215610000000     0.556060000000     0.153248   
H121     H      0.996710000000     0.695910000000     0.880740000000     0.0339919  
H122     H      0.934240000000     0.780540000000     0.613880000000     0.0298016  
H123     H      0.977920000000     0.653830000000     0.707640000000     0.0543238  
H124     H      0.929890000000     0.719600000000     0.677620000000     0.0517113  
H125     H      0.995000000000     0.760330000000     0.820220000000     0.0572566  
H126     H      0.044000000000     0.790720000000     0.754270000000     0.0560755  
H127     H      0.976560000000     0.590650000000     0.769070000000     0.026305   
H128     H      0.118940000000     0.883800000000     0.645000000000     0.183141   
H129     H      0.977320000000     0.763500000000     0.372250000000     0.0305054  
H130     H      0.021300000000     0.599720000000     0.190560000000     0.0264626  
H131     H      0.985240000000     0.815170000000     0.199410000000     0.0554852  
H132     H      0.025020000000     0.662270000000     0.251000000000     0.0496391  
H133     H      0.978060000000     0.702600000000     0.310100000000     0.052676   
H134     H      0.937360000000     0.756160000000     0.160770000000     0.0575876  
H135     H      0.982800000000     0.875840000000     0.262990000000     0.029792   
H136     H      0.888390000000     0.745420000000     0.048460000000     0.194878   
H137     H      0.973610000000     0.193490000000     0.373830000000     0.0248828  
H138     H      0.937760000000     0.360940000000     0.192350000000     0.0263131  
H139     H      0.946170000000     0.144600000000     0.203920000000     0.0574869  
H140     H      0.925600000000     0.298850000000     0.253620000000     0.0504627  
H141     H      0.972040000000     0.254880000000     0.310810000000     0.0529505  
H142     H      0.002310000000     0.196050000000     0.163200000000     0.0588013  
H143     H      0.950220000000     0.083350000000     0.267870000000     0.0302137  
H144     H      0.044980000000     0.203040000000     0.043930000000     0.179662   
N1       N      0.828170000000     0.640730000000     0.973410000000    -0.172024   
N2       N      0.647720000000     0.825970000000     0.995910000000    -0.191971   
N3       N      0.828200000000     0.313970000000     0.994860000000    -0.170192   
N4       N      0.641490000000     0.133950000000     0.990620000000    -0.187729   
N5       N      0.321550000000     0.820790000000     0.979000000000    -0.168638   
N6       N      0.137100000000     0.639240000000     0.988610000000    -0.185832   
N7       N      0.315850000000     0.127760000000     0.968270000000    -0.17596    
N8       N      0.136400000000     0.314880000000     0.974580000000    -0.189622   
N9       N      0.843760000000     0.991850000000     0.662740000000    -0.180196   
N10      N      0.655160000000     0.985310000000     0.839360000000    -0.188815   
N11      N      0.330050000000     0.967190000000     0.821110000000    -0.169549   
N12      N      0.145360000000     0.983200000000     0.640000000000    -0.188421   
N13      N      0.309670000000     0.972610000000     0.130500000000    -0.173066   
N14      N      0.127340000000     0.972480000000     0.314360000000    -0.190157   
N15      N      0.635720000000     0.976630000000     0.149400000000    -0.170193   
N16      N      0.818690000000     0.983270000000     0.332670000000    -0.186429   
N17      N      0.968010000000     0.125800000000     0.654070000000    -0.173458   
N18      N      0.976990000000     0.312610000000     0.832630000000    -0.185302   
N19      N      0.990450000000     0.821460000000     0.647440000000    -0.176151   
N20      N      0.985620000000     0.638540000000     0.829660000000    -0.188601   
N21      N      0.978210000000     0.641060000000     0.139620000000    -0.170505   
N22      N      0.979970000000     0.824600000000     0.322640000000    -0.185974   
N23      N      0.976250000000     0.314920000000     0.141670000000    -0.173834   
N24      N      0.963000000000     0.133660000000     0.325520000000    -0.19096    
O1       O      0.841530000000     0.981130000000     0.413450000000    -0.35345    
O2       O      0.899410000000     0.980380000000     0.352880000000    -0.351646   
O3       O      0.972150000000     0.110130000000     0.571760000000    -0.340398   
O4       O      0.983880000000     0.048750000000     0.627510000000    -0.342539   
O5       O      0.971750000000     0.113070000000     0.405940000000    -0.365779   
O6       O      0.968450000000     0.053750000000     0.348730000000    -0.355522   
O7       O      0.854950000000     0.987420000000     0.580140000000    -0.349431   
O8       O      0.918700000000     0.974930000000     0.632130000000    -0.350114   
O9       O      0.814880000000     0.034730000000     0.496940000000    -0.318127   
O10      O      0.817620000000     0.915700000000     0.502020000000    -0.519684   
O11      O      0.918890000000     0.140560000000     0.488920000000    -0.504583   
O12      O      0.038870000000     0.145060000000     0.486780000000    -0.330767   
O13      O      0.923020000000     0.032860000000     0.442720000000    -0.464845   
O14      O      0.928950000000     0.030880000000     0.538290000000    -0.620526   
O15      O      0.980710000000     0.841980000000     0.567630000000    -0.361737   
O16      O      0.995420000000     0.900810000000     0.623500000000    -0.344125   
O17      O      0.111260000000     0.977280000000     0.396040000000    -0.36847    
O18      O      0.048280000000     0.976980000000     0.342580000000    -0.352539   
O19      O      0.122600000000     0.985120000000     0.559530000000    -0.35146    
O20      O      0.064890000000     0.978570000000     0.619810000000    -0.34583    
O21      O      0.979980000000     0.843580000000     0.403970000000    -0.359702   
O22      O      0.977910000000     0.904630000000     0.346910000000    -0.345943   
O23      O      0.052060000000     0.824380000000     0.484460000000    -0.514448   
O24      O      0.930520000000     0.806310000000     0.486960000000    -0.324487   
O25      O      0.140710000000     0.914110000000     0.481090000000    -0.336207   
O26      O      0.149800000000     0.035850000000     0.471140000000    -0.513294   
O27      O      0.040650000000     0.922960000000     0.530540000000    -0.613371   
O28      O      0.035110000000     0.924790000000     0.434510000000    -0.468304   
O29      O      0.929890000000     0.920680000000     0.542990000000    -0.473852   
O30      O      0.033020000000     0.035050000000     0.431330000000    -0.620814   
O31      O      0.923740000000     0.922530000000     0.438510000000    -0.625188   
O32      O      0.039950000000     0.034370000000     0.536000000000    -0.47551    
O33      O      0.978540000000     0.395670000000     0.121910000000    -0.363507   
O34      O      0.981200000000     0.339150000000     0.061650000000    -0.334096   
O35      O      0.847000000000     0.559450000000     0.976380000000    -0.358993   
O36      O      0.907400000000     0.615090000000     0.980890000000    -0.333853   
O37      O      0.846810000000     0.395570000000     0.991380000000    -0.355404   
O38      O      0.907990000000     0.339340000000     0.989670000000    -0.336113   
O39      O      0.984370000000     0.560010000000     0.121190000000    -0.34872    
O40      O      0.977490000000     0.616240000000     0.059540000000    -0.333288   
O41      O      0.915390000000     0.481850000000     0.144580000000    -0.334696   
O42      O      0.037650000000     0.474240000000     0.155610000000    -0.514305   
O43      O      0.827160000000     0.483110000000     0.054810000000    -0.515263   
O44      O      0.810730000000     0.474760000000     0.932810000000    -0.324857   
O45      O      0.927430000000     0.429300000000     0.042240000000    -0.468452   
O46      O      0.926900000000     0.525830000000     0.040690000000    -0.612286   
O47      O      0.117550000000     0.558430000000     0.990200000000    -0.358771   
O48      O      0.056960000000     0.615650000000     0.985050000000    -0.34477    
O49      O      0.978910000000     0.394150000000     0.850270000000    -0.361442   
O50      O      0.981550000000     0.338020000000     0.912270000000    -0.343616   
O51      O      0.980830000000     0.558060000000     0.849690000000    -0.358187   
O52      O      0.986260000000     0.614400000000     0.909720000000    -0.34675    
O53      O      0.117140000000     0.395380000000     0.979770000000    -0.362108   
O54      O      0.056910000000     0.339110000000     0.982360000000    -0.347036   
O55      O      0.139000000000     0.481270000000     0.918660000000    -0.513579   
O56      O      0.152180000000     0.471710000000     0.041180000000    -0.326545   
O57      O      0.050930000000     0.475510000000     0.829560000000    -0.339115   
O58      O      0.928480000000     0.477720000000     0.814940000000    -0.512311   
O59      O      0.036890000000     0.524500000000     0.929860000000    -0.611185   
O60      O      0.037730000000     0.428260000000     0.930970000000    -0.471186   
O61      O      0.038090000000     0.529170000000     0.041440000000    -0.477723   
O62      O      0.926330000000     0.425850000000     0.931040000000    -0.628647   
O63      O      0.037820000000     0.425260000000     0.041870000000    -0.622842   
O64      O      0.926620000000     0.529240000000     0.929770000000    -0.469765   
O65      O      0.561050000000     0.113810000000     0.982950000000    -0.363191   
O66      O      0.618420000000     0.054100000000     0.994190000000    -0.349518   
O67      O      0.391470000000     0.970450000000     0.115610000000    -0.357104   
O68      O      0.338780000000     0.979380000000     0.052020000000    -0.33429    
O69      O      0.555420000000     0.975610000000     0.126270000000    -0.343928   
O70      O      0.615690000000     0.980350000000     0.068210000000    -0.347908   
O71      O      0.397160000000     0.109230000000     0.972520000000    -0.356659   
O72      O      0.342350000000     0.048320000000     0.971070000000    -0.333146   
O73      O      0.471650000000     0.133100000000     0.047890000000    -0.338674   
O74      O      0.482270000000     0.146140000000     0.925210000000    -0.512881   
O75      O      0.468820000000     0.048340000000     0.136130000000    -0.514312   
O76      O      0.471440000000     0.927990000000     0.160580000000    -0.3146     
O77      O      0.525650000000     0.033680000000     0.041380000000    -0.469985   
O78      O      0.429070000000     0.031670000000     0.035450000000    -0.610765   
O79      O      0.410220000000     0.972100000000     0.843900000000    -0.339264   
O80      O      0.350180000000     0.970190000000     0.902120000000    -0.342127   
O81      O      0.566650000000     0.843610000000     0.998530000000    -0.366402   
O82      O      0.621840000000     0.904690000000     0.990110000000    -0.355071   
O83      O      0.402610000000     0.840500000000     0.984050000000    -0.339828   
O84      O      0.344670000000     0.900580000000     0.980990000000    -0.341504   
O85      O      0.573210000000     0.980890000000     0.854230000000    -0.362818   
O86      O      0.625850000000     0.979540000000     0.918100000000    -0.351146   
O87      O      0.499210000000     0.907510000000     0.831720000000    -0.507673   
O88      O      0.490800000000     0.028790000000     0.812140000000    -0.321173   
O89      O      0.493730000000     0.817280000000     0.926000000000    -0.334669   
O90      O      0.480590000000     0.809250000000     0.047910000000    -0.514156   
O91      O      0.439530000000     0.920160000000     0.929530000000    -0.617941   
O92      O      0.535730000000     0.921600000000     0.935150000000    -0.467085   
O93      O      0.432700000000     0.030750000000     0.924190000000    -0.474288   
O94      O      0.531350000000     0.923160000000     0.045790000000    -0.625253   
O95      O      0.536100000000     0.032150000000     0.930430000000    -0.626025   
O96      O      0.427480000000     0.921350000000     0.040640000000    -0.477264   
O97      O      0.910790000000     0.743050000000     0.954620000000    -0.335879   
O98      O      0.901970000000     0.679570000000     0.906270000000    -0.225094   
O99      O      0.908310000000     0.218300000000     0.956830000000    -0.332464   
O100     O      0.915600000000     0.251980000000     0.029890000000    -0.212611   
O101     O      0.389860000000     0.794750000000     0.896210000000    -0.32737    
O102     O      0.393930000000     0.723240000000     0.934930000000    -0.238196   
O103     O      0.224030000000     0.067290000000     0.898270000000    -0.333841   
O104     O      0.252770000000     0.034660000000     0.966890000000    -0.20651    
O105     O      0.781390000000     0.087300000000     0.603170000000    -0.297678   
O106     O      0.858300000000     0.098990000000     0.633480000000    -0.164139   
O107     O      0.408780000000     0.940180000000     0.716400000000    -0.332529   
O108     O      0.402780000000     0.895660000000     0.784620000000    -0.237075   
O109     O      0.300710000000     0.069210000000     0.080420000000    -0.334082   
O110     O      0.224180000000     0.047750000000     0.067510000000    -0.226493   
O111     O      0.562700000000     0.926470000000     0.249930000000    -0.334695   
O112     O      0.574060000000     0.893140000000     0.176950000000    -0.244058   
O113     O      0.902360000000     0.209730000000     0.582690000000    -0.305855   
O114     O      0.864930000000     0.139420000000     0.604700000000    -0.173196   
O115     O      0.089360000000     0.865210000000     0.645340000000    -0.337931   
O116     O      0.076330000000     0.875670000000     0.724990000000    -0.242561   
O117     O      0.913370000000     0.738250000000     0.072100000000    -0.333542   
O118     O      0.892650000000     0.660660000000     0.079010000000    -0.232415   
O119     O      0.023070000000     0.212820000000     0.070020000000    -0.325959   
O120     O      0.059910000000     0.283470000000     0.080140000000    -0.235691   
Zr1      Zr     0.880900000000     0.975060000000     0.494060000000     1.29135    
Zr2      Zr     0.981460000000     0.078550000000     0.487690000000     1.29821    
Zr3      Zr     0.981790000000     0.877650000000     0.486130000000     1.29796    
Zr4      Zr     0.082340000000     0.981370000000     0.480190000000     1.29563    
Zr5      Zr     0.976360000000     0.979010000000     0.395230000000     1.26592    
Zr6      Zr     0.987730000000     0.976400000000     0.577930000000     1.27468    
Zr7      Zr     0.983610000000     0.477640000000     0.087060000000     1.29441    
Zr8      Zr     0.881450000000     0.477700000000     0.985180000000     1.29606    
Zr9      Zr     0.082850000000     0.476830000000     0.986930000000     1.29831    
Zr10     Zr     0.980800000000     0.476400000000     0.884850000000     1.29618    
Zr11     Zr     0.982330000000     0.386070000000     0.986650000000     1.27966    
Zr12     Zr     0.982210000000     0.568330000000     0.985070000000     1.27311    
Zr13     Zr     0.479930000000     0.077150000000     0.980080000000     1.29589    
Zr14     Zr     0.475550000000     0.977100000000     0.086230000000     1.3004     
Zr15     Zr     0.489240000000     0.976420000000     0.884350000000     1.3033     
Zr16     Zr     0.484180000000     0.876380000000     0.990820000000     1.30102    
Zr17     Zr     0.573540000000     0.978530000000     0.990450000000     1.26732    
Zr18     Zr     0.391130000000     0.975260000000     0.979940000000     1.27638    


