data_structure

_audit_creation_method RASPA-1.0
_audit_creation_date 2023-6-5
_audit_author_name 'Poobodin Mano'

_cell_length_a    27.5139
_cell_length_b    27.5226
_cell_length_c    27.5143
_cell_angle_alpha 89.2565
_cell_angle_beta  89.2563
_cell_angle_gamma 89.2563
_cell_volume      20830.1

_symmetry_cell_setting          triclinic
_symmetry_space_group_name_Hall 'P 1'
_symmetry_space_group_name_H-M  'P 1'
_symmetry_Int_Tables_number     1

_symmetry_equiv_pos_as_xyz 'x,y,z'

loop_
_atom_site_label
_atom_site_type_symbol
_atom_site_fract_x
_atom_site_fract_y
_atom_site_fract_z
_atom_site_charge
C1       C      0.861020000000     0.990690000000     0.356310000000     0.379377   
C2       C      0.992620000000     0.102030000000     0.606430000000     0.405204   
C3       C      0.990340000000     0.097790000000     0.353290000000     0.412319   
C4       C      0.862360000000     0.990420000000     0.609870000000     0.41502    
C5       C      0.972890000000     0.863050000000     0.611370000000     0.412814   
C6       C      0.099630000000     0.964500000000     0.354640000000     0.415678   
C7       C      0.102080000000     0.974000000000     0.608130000000     0.406675   
C8       C      0.973550000000     0.858470000000     0.358140000000     0.40496    
C9       C      0.976400000000     0.351300000000     0.099910000000     0.391867   
C10      C      0.863100000000     0.608550000000     0.977570000000     0.413405   
C11      C      0.859870000000     0.355310000000     0.980490000000     0.401719   
C12      C      0.981450000000     0.604640000000     0.104550000000     0.381191   
C13      C      0.103140000000     0.604840000000     0.986210000000     0.403559   
C14      C      0.984150000000     0.355910000000     0.860030000000     0.378255   
C15      C      0.977060000000     0.609400000000     0.865160000000     0.393419   
C16      C      0.100080000000     0.352020000000     0.981190000000     0.410981   
C17      C      0.605280000000     0.102550000000     0.980010000000     0.379584   
C18      C      0.352800000000     0.978440000000     0.101110000000     0.390228   
C19      C      0.605790000000     0.985870000000     0.104450000000     0.400194   
C20      C      0.352120000000     0.097250000000     0.971530000000     0.391414   
C21      C      0.356670000000     0.977530000000     0.860870000000     0.379315   
C22      C      0.610110000000     0.862670000000     0.987710000000     0.389504   
C23      C      0.356620000000     0.858340000000     0.989780000000     0.380886   
C24      C      0.609960000000     0.976090000000     0.864610000000     0.387974   
C25      C      0.782750000000     0.637350000000     0.960240000000     0.411593   
C26      C      0.841380000000     0.691180000000     0.990930000000     0.0919836  
C27      C      0.747740000000     0.674200000000     0.961060000000    -0.214365   
C28      C      0.731090000000     0.807160000000     0.973730000000    -0.0743283  
C29      C      0.806780000000     0.728550000000     0.993090000000    -0.120956   
C30      C      0.720850000000     0.758150000000     0.982880000000     0.0149555  
C31      C      0.759100000000     0.720040000000     0.978730000000     0.0954199  
C32      C      0.693880000000     0.841950000000     0.976660000000     0.0676464  
C33      C      0.636930000000     0.780870000000     0.997450000000     0.0675955  
C34      C      0.673270000000     0.745450000000     0.995790000000    -0.0750908  
C35      C      0.836570000000     0.271860000000     0.992860000000     0.405523   
C36      C      0.778280000000     0.330700000000     0.967730000000     0.0867033  
C37      C      0.800900000000     0.235860000000     0.993460000000    -0.206926   
C38      C      0.664870000000     0.221090000000     0.987810000000    -0.0731803  
C39      C      0.742270000000     0.295310000000     0.966700000000    -0.113618   
C40      C      0.714130000000     0.208770000000     0.980350000000     0.0153514  
C41      C      0.752860000000     0.246970000000     0.980110000000     0.0896511  
C42      C      0.629120000000     0.185380000000     0.986970000000     0.0647716  
C43      C      0.689080000000     0.124460000000     0.973760000000     0.0649468  
C44      C      0.725670000000     0.159460000000     0.973070000000    -0.0726616  
C45      C      0.186490000000     0.629510000000     0.978420000000     0.408154   
C46      C      0.125040000000     0.687970000000     0.995920000000     0.0888688  
C47      C      0.221910000000     0.665510000000     0.979200000000    -0.206532   
C48      C      0.295530000000     0.740800000000     0.004470000000    -0.0710987  
C49      C      0.159900000000     0.724630000000     0.998000000000    -0.115582   
C50      C      0.247560000000     0.752380000000     0.991180000000     0.0151674  
C51      C      0.209320000000     0.713850000000     0.989600000000     0.0916943  
C52      C      0.331360000000     0.776470000000     0.003680000000     0.0686977  
C53      C      0.273570000000     0.836050000000     0.979410000000     0.0653185  
C54      C      0.237040000000     0.801010000000     0.978740000000    -0.0728679  
C55      C      0.181650000000     0.323550000000     0.992440000000     0.411006   
C56      C      0.121050000000     0.269480000000     0.966170000000     0.0935023  
C57      C      0.216490000000     0.286650000000     0.989850000000    -0.21414    
C58      C      0.231200000000     0.153470000000     0.981780000000    -0.0739867  
C59      C      0.155400000000     0.232000000000     0.962350000000    -0.119182   
C60      C      0.241520000000     0.201840000000     0.969630000000     0.0160764  
C61      C      0.203880000000     0.240530000000     0.973850000000     0.0960085  
C62      C      0.268290000000     0.118470000000     0.980650000000     0.068582   
C63      C      0.325120000000     0.177970000000     0.955140000000     0.0713532  
C64      C      0.288850000000     0.213520000000     0.954880000000    -0.0745027  
C65      C      0.780830000000     0.004590000000     0.637810000000     0.413571   
C66      C      0.841250000000     0.976980000000     0.692870000000     0.0941587  
C67      C      0.745760000000     0.002550000000     0.674610000000    -0.212889   
C68      C      0.673070000000     0.967140000000     0.747470000000    -0.0740412  
C69      C      0.806700000000     0.973480000000     0.730170000000    -0.118851   
C70      C      0.720200000000     0.980790000000     0.759540000000     0.0156301  
C71      C      0.758130000000     0.985760000000     0.721120000000     0.0945417  
C72      C      0.636910000000     0.965280000000     0.783120000000     0.0683424  
C73      C      0.693370000000     0.986800000000     0.843340000000     0.0672388  
C74      C      0.730280000000     0.990100000000     0.808300000000    -0.0758027  
C75      C      0.124570000000     0.985140000000     0.691690000000     0.408914   
C76      C      0.184070000000     0.961770000000     0.633310000000     0.0913951  
C77      C      0.160130000000     0.986030000000     0.727780000000    -0.205352   
C78      C      0.295980000000     0.985660000000     0.742530000000    -0.0715856  
C79      C      0.220090000000     0.961310000000     0.668760000000    -0.113681   
C80      C      0.247500000000     0.975270000000     0.754990000000     0.0157076  
C81      C      0.208800000000     0.974070000000     0.716860000000     0.0913515  
C82      C      0.331840000000     0.985870000000     0.778170000000     0.0643353  
C83      C      0.273320000000     0.967690000000     0.839230000000     0.065481   
C84      C      0.236700000000     0.966130000000     0.804320000000    -0.0718515  
C85      C      0.180060000000     0.944750000000     0.326740000000     0.413221   
C86      C      0.121310000000     0.975550000000     0.271490000000     0.0939156  
C87      C      0.215310000000     0.944940000000     0.290030000000    -0.213912   
C88      C      0.289760000000     0.979840000000     0.218680000000    -0.0723752  
C89      C      0.156080000000     0.977270000000     0.234320000000    -0.119984   
C90      C      0.242510000000     0.967480000000     0.205720000000     0.0153073  
C91      C      0.204010000000     0.962720000000     0.243580000000     0.0961532  
C92      C      0.325990000000     0.983450000000     0.183250000000     0.0692166  
C93      C      0.269580000000     0.965430000000     0.121760000000     0.0684209  
C94      C      0.232590000000     0.960440000000     0.156510000000    -0.0737203  
C95      C      0.631410000000     0.977720000000     0.187540000000     0.404561   
C96      C      0.688810000000     0.997600000000     0.125810000000     0.0857419  
C97      C      0.667790000000     0.978860000000     0.222590000000    -0.205796   
C98      C      0.743170000000     0.005040000000     0.295740000000    -0.0708446  
C99      C      0.725800000000     0.000020000000     0.160300000000    -0.112151   
C100     C      0.754670000000     0.992600000000     0.247550000000     0.0152556  
C101     C      0.715770000000     0.990600000000     0.209670000000     0.089122   
C102     C      0.779040000000     0.004350000000     0.331330000000     0.0666895  
C103     C      0.838810000000     0.982120000000     0.272890000000     0.0649067  
C104     C      0.803540000000     0.981410000000     0.236520000000    -0.0724554  
C105     C      0.008460000000     0.183680000000     0.631970000000     0.409754   
C106     C      0.979800000000     0.125330000000     0.689090000000     0.095856   
C107     C      0.008120000000     0.219230000000     0.667990000000    -0.203263   
C108     C      0.981070000000     0.295940000000     0.741280000000    -0.0722232  
C109     C      0.978170000000     0.160400000000     0.725630000000    -0.111133   
C110     C      0.989800000000     0.246980000000     0.753790000000     0.0175844  
C111     C      0.992150000000     0.208390000000     0.715510000000     0.090988   
C112     C      0.979690000000     0.331690000000     0.777040000000     0.0662057  
C113     C      0.993600000000     0.272220000000     0.838280000000     0.0675137  
C114     C      0.996160000000     0.235620000000     0.803270000000    -0.072523   
C115     C      0.982530000000     0.780690000000     0.637930000000     0.415397   
C116     C      0.963220000000     0.842180000000     0.695060000000     0.0968222  
C117     C      0.982380000000     0.745720000000     0.674740000000    -0.213575   
C118     C      0.954690000000     0.673600000000     0.750620000000    -0.0738788  
C119     C      0.961540000000     0.807620000000     0.732610000000    -0.117734   
C120     C      0.969590000000     0.720680000000     0.761340000000     0.0170373  
C121     C      0.970980000000     0.758620000000     0.722580000000     0.0968437  
C122     C      0.957620000000     0.637000000000     0.785680000000     0.0730812  
C123     C      0.985810000000     0.692960000000     0.843420000000     0.070098   
C124     C      0.984700000000     0.730310000000     0.808650000000    -0.0738968  
C125     C      0.960330000000     0.776240000000     0.332960000000     0.406506   
C126     C      0.986580000000     0.835350000000     0.275450000000     0.0900578  
C127     C      0.961090000000     0.740700000000     0.296970000000    -0.20585    
C128     C      0.988040000000     0.664680000000     0.223030000000    -0.0718432  
C129     C      0.988640000000     0.800310000000     0.238900000000    -0.11566    
C130     C      0.978230000000     0.713520000000     0.210810000000     0.0161238  
C131     C      0.975960000000     0.751970000000     0.249210000000     0.0913084  
C132     C      0.988760000000     0.628960000000     0.187260000000     0.0684395  
C133     C      0.972360000000     0.688290000000     0.126500000000     0.0654744  
C134     C      0.970410000000     0.724840000000     0.161560000000    -0.0729429  
C135     C      0.007000000000     0.178050000000     0.323940000000     0.412035   
C136     C      0.973980000000     0.119680000000     0.271250000000     0.0930548  
C137     C      0.004690000000     0.213200000000     0.287280000000    -0.212197   
C138     C      0.968570000000     0.288170000000     0.217210000000    -0.0734074  
C139     C      0.970290000000     0.154420000000     0.234140000000    -0.119456   
C140     C      0.979990000000     0.240330000000     0.204180000000     0.016673   
C141     C      0.985100000000     0.202050000000     0.242170000000     0.0951775  
C142     C      0.966980000000     0.324600000000     0.181840000000     0.0710942  
C143     C      0.984380000000     0.267190000000     0.120240000000     0.0751834  
C144     C      0.987260000000     0.229900000000     0.154920000000    -0.0709458  
F1       F      0.769480000000     0.593820000000     0.942110000000    -0.449832   
F2       F      0.881990000000     0.258500000000     0.007120000000    -0.452649   
F3       F      0.201770000000     0.583770000000     0.967260000000    -0.450547   
F4       F      0.196230000000     0.367250000000     0.009100000000    -0.446858   
F5       F      0.766580000000     0.021720000000     0.593580000000    -0.453755   
F6       F      0.078480000000     0.998120000000     0.704920000000    -0.450711   
F7       F      0.193220000000     0.926900000000     0.371040000000    -0.455547   
F8       F      0.586090000000     0.965330000000     0.203110000000    -0.450071   
F9       F      0.024850000000     0.197060000000     0.587010000000    -0.442088   
F10      F      0.995050000000     0.765670000000     0.592510000000    -0.450944   
F11      F      0.944930000000     0.762410000000     0.378140000000    -0.449749   
F12      F      0.026980000000     0.191110000000     0.366710000000    -0.446743   
H1       H      0.914010000000     0.063280000000     0.550290000000     0.217218   
H2       H      0.063570000000     0.046200000000     0.407070000000     0.2116     
H3       H      0.049120000000     0.899420000000     0.552430000000     0.215681   
H4       H      0.898790000000     0.912030000000     0.412240000000     0.21092    
H5       H      0.083770000000     0.127290000000     0.469540000000     0.135496   
H6       H      0.154130000000     0.052070000000     0.472190000000     0.20037    
H7       H      0.122070000000     0.878360000000     0.457550000000     0.169187   
H8       H      0.058700000000     0.818670000000     0.505880000000     0.221078   
H9       H      0.877700000000     0.836070000000     0.480120000000     0.13073    
H10      H      0.807480000000     0.909700000000     0.481980000000     0.198164   
H11      H      0.840400000000     0.080890000000     0.452770000000     0.14951    
H12      H      0.918850000000     0.156010000000     0.510500000000     0.220549   
H13      H      0.026270000000     0.787840000000     0.465890000000     0.245203   
H14      H      0.775670000000     0.961750000000     0.486630000000     0.230193   
H15      H      0.913760000000     0.150810000000     0.450280000000     0.219435   
H16      H      0.186800000000     0.000640000000     0.478220000000     0.228475   
H17      H      0.905370000000     0.549080000000     0.056970000000     0.211476   
H18      H      0.906720000000     0.410480000000     0.904960000000     0.208126   
H19      H      0.057460000000     0.550070000000     0.908750000000     0.215047   
H20      H      0.054550000000     0.404850000000     0.057570000000     0.210828   
H21      H      0.824440000000     0.483530000000     0.893820000000     0.13492    
H22      H      0.897190000000     0.480860000000     0.813220000000     0.194623   
H23      H      0.068560000000     0.454350000000     0.831230000000     0.153041   
H24      H      0.149440000000     0.509590000000     0.903280000000     0.232087   
H25      H      0.137340000000     0.467040000000     0.070580000000     0.133211   
H26      H      0.067390000000     0.467790000000     0.148290000000     0.19591    
H27      H      0.892460000000     0.452380000000     0.131470000000     0.151863   
H28      H      0.812910000000     0.513790000000     0.060210000000     0.211488   
H29      H      0.145970000000     0.449080000000     0.900280000000     0.222051   
H30      H      0.018890000000     0.474790000000     0.185030000000     0.211885   
H31      H      0.817810000000     0.453300000000     0.065520000000     0.210381   
H32      H      0.947250000000     0.485090000000     0.778240000000     0.210243   
H33      H      0.408460000000     0.056670000000     0.052250000000     0.210972   
H34      H      0.554020000000     0.908750000000     0.062650000000     0.210704   
H35      H      0.415300000000     0.901350000000     0.911420000000     0.211708   
H36      H      0.553450000000     0.053730000000     0.903640000000     0.205144   
H37      H      0.486560000000     0.900320000000     0.145980000000     0.133853   
H38      H      0.486970000000     0.818460000000     0.081320000000     0.193937   
H39      H      0.514520000000     0.827570000000     0.906120000000     0.150881   
H40      H      0.453270000000     0.895060000000     0.818620000000     0.204185   
H41      H      0.486580000000     0.061420000000     0.820620000000     0.128843   
H42      H      0.487650000000     0.142210000000     0.884670000000     0.19001    
H43      H      0.500630000000     0.134620000000     0.060260000000     0.151214   
H44      H      0.444520000000     0.067090000000     0.143870000000     0.206888   
H45      H      0.513350000000     0.889020000000     0.825730000000     0.207176   
H46      H      0.476420000000     0.180760000000     0.930160000000     0.208802   
H47      H      0.505070000000     0.071380000000     0.140330000000     0.215738   
H48      H      0.485300000000     0.779570000000     0.035090000000     0.210023   
H49      H      0.703160000000     0.879390000000     0.968570000000     0.0311229  
H50      H      0.877590000000     0.699140000000     0.003480000000     0.0243637  
H51      H      0.663920000000     0.708260000000     0.004710000000     0.0566989  
H52      H      0.817170000000     0.763390000000     0.007260000000     0.0620214  
H53      H      0.767290000000     0.818580000000     0.963280000000     0.0498246  
H54      H      0.711790000000     0.666620000000     0.947740000000     0.117985   
H55      H      0.600600000000     0.769100000000     0.007250000000     0.0288284  
H56      H      0.591760000000     0.197070000000     0.992910000000     0.0283663  
H57      H      0.767760000000     0.367330000000     0.956900000000     0.0303159  
H58      H      0.762700000000     0.147580000000     0.966040000000     0.0521244  
H59      H      0.706410000000     0.306180000000     0.954710000000     0.0629438  
H60      H      0.653520000000     0.258110000000     0.994990000000     0.0514026  
H61      H      0.811160000000     0.199580000000     0.005350000000     0.112992   
H62      H      0.700080000000     0.087010000000     0.967820000000     0.0302495  
H63      H      0.367780000000     0.765320000000     0.013990000000     0.0312569  
H64      H      0.087490000000     0.698330000000     0.003040000000     0.026711   
H65      H      0.201020000000     0.812170000000     0.967440000000     0.0491144  
H66      H      0.147890000000     0.761060000000     0.006930000000     0.0612157  
H67      H      0.305740000000     0.704350000000     0.015870000000     0.0570851  
H68      H      0.259120000000     0.655180000000     0.970750000000     0.11746    
H69      H      0.263500000000     0.872930000000     0.969030000000     0.0302985  
H70      H      0.259040000000     0.081650000000     0.991380000000     0.0309156  
H71      H      0.084060000000     0.261440000000     0.956090000000     0.0287392  
H72      H      0.298160000000     0.250100000000     0.943550000000     0.0572839  
H73      H      0.144070000000     0.196940000000     0.949510000000     0.063847   
H74      H      0.195160000000     0.142830000000     0.993640000000     0.0510802  
H75      H      0.253210000000     0.294320000000     0.000910000000     0.120576   
H76      H      0.361380000000     0.188980000000     0.944150000000     0.0295506  
H77      H      0.600860000000     0.955080000000     0.771860000000     0.0309313  
H78      H      0.878220000000     0.966040000000     0.701350000000     0.0291502  
H79      H      0.766070000000     0.001150000000     0.819330000000     0.0511925  
H80      H      0.817970000000     0.959960000000     0.765450000000     0.0624983  
H81      H      0.663880000000     0.957910000000     0.710600000000     0.0565454  
H82      H      0.709020000000     0.014340000000     0.666470000000     0.117876   
H83      H      0.702520000000     0.995180000000     0.880500000000     0.0292963  
H84      H      0.368590000000     0.994090000000     0.766330000000     0.0342929  
H85      H      0.195180000000     0.951630000000     0.596830000000     0.0296043  
H86      H      0.200280000000     0.956980000000     0.816210000000     0.0528101  
H87      H      0.256600000000     0.950420000000     0.658170000000     0.0642113  
H88      H      0.306530000000     0.994300000000     0.705430000000     0.0528677  
H89      H      0.149310000000     0.997160000000     0.763950000000     0.113475   
H90      H      0.262970000000     0.960150000000     0.876700000000     0.0309092  
H91      H      0.362030000000     0.992910000000     0.195170000000     0.0345062  
H92      H      0.084980000000     0.988450000000     0.262860000000     0.0248023  
H93      H      0.196730000000     0.950330000000     0.144800000000     0.0499493  
H94      H      0.145620000000     0.991570000000     0.199080000000     0.0619932  
H95      H      0.298910000000     0.987200000000     0.256000000000     0.0582242  
H96      H      0.251430000000     0.931350000000     0.298270000000     0.119254   
H97      H      0.260490000000     0.959140000000     0.084150000000     0.0313319  
H98      H      0.767850000000     0.013860000000     0.367950000000     0.0326535  
H99      H      0.698640000000     0.005550000000     0.088280000000     0.0274555  
H100     H      0.814670000000     0.970940000000     0.200230000000     0.0491603  
H101     H      0.761890000000     0.010000000000     0.148060000000     0.0603637  
H102     H      0.706560000000     0.015580000000     0.306340000000     0.0567759  
H103     H      0.658050000000     0.969630000000     0.259780000000     0.116189   
H104     H      0.875840000000     0.972610000000     0.262520000000     0.0308603  
H105     H      0.972810000000     0.368820000000     0.765140000000     0.0288373  
H106     H      0.967950000000     0.089070000000     0.698980000000     0.0390758  
H107     H      0.003870000000     0.198740000000     0.815210000000     0.0550754  
H108     H      0.964880000000     0.149830000000     0.761360000000     0.06523    
H109     H      0.974590000000     0.306970000000     0.704010000000     0.0562848  
H110     H      0.020960000000     0.255120000000     0.658330000000     0.118269   
H111     H      0.999010000000     0.261420000000     0.875880000000     0.0377841  
H112     H      0.946220000000     0.601030000000     0.775370000000     0.0313779  
H113     H      0.955150000000     0.879650000000     0.704250000000     0.0309342  
H114     H      0.996970000000     0.766010000000     0.818590000000     0.0516913  
H115     H      0.952130000000     0.819310000000     0.768990000000     0.0637509  
H116     H      0.940980000000     0.664690000000     0.715160000000     0.0585903  
H117     H      0.991990000000     0.708670000000     0.665500000000     0.120433   
H118     H      0.998490000000     0.701700000000     0.879390000000     0.0308384  
H119     H      0.996390000000     0.591890000000     0.198920000000     0.0316748  
H120     H      0.997300000000     0.871940000000     0.265420000000     0.0266369  
H121     H      0.961890000000     0.761640000000     0.149880000000     0.0485287  
H122     H      0.001090000000     0.811210000000     0.202970000000     0.0614613  
H123     H      0.995730000000     0.653720000000     0.260080000000     0.0572102  
H124     H      0.949310000000     0.704490000000     0.306810000000     0.117322   
H125     H      0.965710000000     0.699040000000     0.089100000000     0.0300601  
H126     H      0.958620000000     0.361180000000     0.193830000000     0.0295042  
H127     H      0.961020000000     0.083540000000     0.263740000000     0.0255249  
H128     H      0.996480000000     0.193500000000     0.143170000000     0.054102   
H129     H      0.954670000000     0.144160000000     0.199900000000     0.0643359  
H130     H      0.961000000000     0.297700000000     0.254640000000     0.0575877  
H131     H      0.018480000000     0.249060000000     0.294400000000     0.119828   
H132     H      0.991170000000     0.257710000000     0.082610000000     0.0461938  
N1       N      0.829240000000     0.645500000000     0.975930000000    -0.240623   
N2       N      0.646960000000     0.828750000000     0.987520000000    -0.188651   
N3       N      0.825310000000     0.319340000000     0.980380000000    -0.23487    
N4       N      0.641000000000     0.137260000000     0.980250000000    -0.185207   
N5       N      0.138050000000     0.640490000000     0.986800000000    -0.234871   
N6       N      0.320660000000     0.823850000000     0.991100000000    -0.184649   
N7       N      0.134130000000     0.315220000000     0.980170000000    -0.24022    
N8       N      0.315190000000     0.130950000000     0.968780000000    -0.188212   
N9       N      0.828290000000     0.991120000000     0.646670000000    -0.240145   
N10      N      0.646750000000     0.975660000000     0.830630000000    -0.188715   
N11      N      0.136470000000     0.973520000000     0.644340000000    -0.233645   
N12      N      0.320750000000     0.977100000000     0.826320000000    -0.18422    
N13      N      0.133480000000     0.961070000000     0.317810000000    -0.241068   
N14      N      0.316130000000     0.976080000000     0.135140000000    -0.187907   
N15      N      0.641680000000     0.987050000000     0.139120000000    -0.234588   
N16      N      0.826590000000     0.992650000000     0.320260000000    -0.184815   
N17      N      0.993960000000     0.136810000000     0.642220000000    -0.23235    
N18      N      0.985760000000     0.320090000000     0.825350000000    -0.184006   
N19      N      0.972790000000     0.828770000000     0.647930000000    -0.239434   
N20      N      0.973510000000     0.646410000000     0.831630000000    -0.18774    
N21      N      0.973250000000     0.823540000000     0.322470000000    -0.23491    
N22      N      0.980970000000     0.640480000000     0.139200000000    -0.184008   
N23      N      0.990890000000     0.131640000000     0.316300000000    -0.241078   
N24      N      0.975550000000     0.314390000000     0.133760000000    -0.186255   
O1       O      0.846210000000     0.993840000000     0.401190000000    -0.359518   
O2       O      0.906340000000     0.984770000000     0.343910000000    -0.349349   
O3       O      0.997710000000     0.115920000000     0.561390000000    -0.3155     
O4       O      0.985240000000     0.057180000000     0.619290000000    -0.338115   
O5       O      0.995160000000     0.112900000000     0.397310000000    -0.327311   
O6       O      0.983920000000     0.052770000000     0.342390000000    -0.359957   
O7       O      0.847260000000     0.991880000000     0.565480000000    -0.320096   
O8       O      0.907680000000     0.986950000000     0.621450000000    -0.355392   
O9       O      0.833090000000     0.064510000000     0.484230000000    -0.312459   
O10      O      0.806520000000     0.944710000000     0.484160000000    -0.511957   
O11      O      0.929250000000     0.141320000000     0.480330000000    -0.508046   
O12      O      0.052600000000     0.144400000000     0.476400000000    -0.265849   
O13      O      0.932050000000     0.040360000000     0.432880000000    -0.471992   
O14      O      0.932080000000     0.041160000000     0.529670000000    -0.616628   
O15      O      0.970070000000     0.848090000000     0.567130000000    -0.321173   
O16      O      0.976300000000     0.908320000000     0.622840000000    -0.350575   
O17      O      0.114740000000     0.962710000000     0.399040000000    -0.328538   
O18      O      0.054640000000     0.971210000000     0.343050000000    -0.360845   
O19      O      0.117110000000     0.971120000000     0.563260000000    -0.352732   
O20      O      0.056520000000     0.977580000000     0.620310000000    -0.308564   
O21      O      0.969220000000     0.844540000000     0.403210000000    -0.32097    
O22      O      0.978730000000     0.903600000000     0.345120000000    -0.351885   
O23      O      0.030650000000     0.816430000000     0.485290000000    -0.50317    
O24      O      0.908350000000     0.818350000000     0.487390000000    -0.285565   
O25      O      0.131160000000     0.897360000000     0.486290000000    -0.324682   
O26      O      0.155670000000     0.017170000000     0.476330000000    -0.511771   
O27      O      0.030770000000     0.920840000000     0.531240000000    -0.618547   
O28      O      0.030980000000     0.919420000000     0.434540000000    -0.467898   
O29      O      0.920700000000     0.931550000000     0.536190000000    -0.476232   
O30      O      0.041840000000     0.028860000000     0.428810000000    -0.626011   
O31      O      0.920340000000     0.930110000000     0.432500000000    -0.631784   
O32      O      0.042800000000     0.030840000000     0.532660000000    -0.474483   
O33      O      0.975910000000     0.395550000000     0.115480000000    -0.364929   
O34      O      0.978880000000     0.340070000000     0.054450000000    -0.340107   
O35      O      0.848030000000     0.564360000000     0.974050000000    -0.32432    
O36      O      0.908150000000     0.619710000000     0.983480000000    -0.359695   
O37      O      0.845080000000     0.400290000000     0.977960000000    -0.361612   
O38      O      0.905380000000     0.342780000000     0.982670000000    -0.312371   
O39      O      0.983670000000     0.559570000000     0.119120000000    -0.348944   
O40      O      0.979310000000     0.617510000000     0.059120000000    -0.348606   
O41      O      0.911040000000     0.482120000000     0.137970000000    -0.33555    
O42      O      0.032760000000     0.472530000000     0.152680000000    -0.514452   
O43      O      0.826260000000     0.483240000000     0.048940000000    -0.513103   
O44      O      0.810460000000     0.482980000000     0.927160000000    -0.293282   
O45      O      0.925180000000     0.431370000000     0.036260000000    -0.468938   
O46      O      0.925640000000     0.528180000000     0.037080000000    -0.612658   
O47      O      0.117520000000     0.559780000000     0.986240000000    -0.318443   
O48      O      0.057620000000     0.617830000000     0.985750000000    -0.352532   
O49      O      0.982430000000     0.400990000000     0.845430000000    -0.360589   
O50      O      0.984320000000     0.343000000000     0.905540000000    -0.342274   
O51      O      0.974010000000     0.565230000000     0.849750000000    -0.353217   
O52      O      0.983100000000     0.620430000000     0.910200000000    -0.354162   
O53      O      0.115200000000     0.396190000000     0.984370000000    -0.327232   
O54      O      0.054710000000     0.340740000000     0.978480000000    -0.355674   
O55      O      0.136890000000     0.479210000000     0.915810000000    -0.50762    
O56      O      0.151350000000     0.475400000000     0.038260000000    -0.273434   
O57      O      0.053040000000     0.486940000000     0.828850000000    -0.336269   
O58      O      0.932130000000     0.482890000000     0.810070000000    -0.51232    
O59      O      0.037250000000     0.528880000000     0.928380000000    -0.613319   
O60      O      0.037090000000     0.431980000000     0.927170000000    -0.471485   
O61      O      0.036870000000     0.530200000000     0.039630000000    -0.477263   
O62      O      0.926260000000     0.430650000000     0.925280000000    -0.629702   
O63      O      0.035260000000     0.426610000000     0.037580000000    -0.625541   
O64      O      0.927210000000     0.534420000000     0.927050000000    -0.469515   
O65      O      0.560170000000     0.117030000000     0.978800000000    -0.360221   
O66      O      0.618350000000     0.057120000000     0.980860000000    -0.349562   
O67      O      0.397030000000     0.980180000000     0.116520000000    -0.359944   
O68      O      0.341450000000     0.977970000000     0.055630000000    -0.353691   
O69      O      0.560800000000     0.983780000000     0.119020000000    -0.321558   
O70      O      0.618570000000     0.986750000000     0.058870000000    -0.353264   
O71      O      0.396340000000     0.112710000000     0.968030000000    -0.355803   
O72      O      0.341010000000     0.052140000000     0.978370000000    -0.355733   
O73      O      0.470580000000     0.138710000000     0.041150000000    -0.336034   
O74      O      0.481480000000     0.147990000000     0.918780000000    -0.513818   
O75      O      0.475560000000     0.054750000000     0.132340000000    -0.511058   
O76      O      0.479700000000     0.933770000000     0.157240000000    -0.292953   
O77      O      0.527470000000     0.038440000000     0.035110000000    -0.471473   
O78      O      0.430470000000     0.036300000000     0.033650000000    -0.609721   
O79      O      0.401610000000     0.980280000000     0.846110000000    -0.354907   
O80      O      0.344000000000     0.975000000000     0.906400000000    -0.348181   
O81      O      0.565900000000     0.847180000000     0.990840000000    -0.367315   
O82      O      0.621300000000     0.908100000000     0.984330000000    -0.354978   
O83      O      0.401530000000     0.843920000000     0.994410000000    -0.349081   
O84      O      0.344010000000     0.903490000000     0.983440000000    -0.349315   
O85      O      0.565710000000     0.974320000000     0.849260000000    -0.36265    
O86      O      0.621220000000     0.979540000000     0.909910000000    -0.355178   
O87      O      0.483260000000     0.906440000000     0.832090000000    -0.514201   
O88      O      0.485850000000     0.027660000000     0.808670000000    -0.3221     
O89      O      0.483670000000     0.821800000000     0.924070000000    -0.336345   
O90      O      0.485560000000     0.812500000000     0.046840000000    -0.513714   
O91      O      0.435360000000     0.922290000000     0.930420000000    -0.613718   
O92      O      0.531990000000     0.924010000000     0.931670000000    -0.467212   
O93      O      0.428900000000     0.033070000000     0.923410000000    -0.473698   
O94      O      0.532980000000     0.927650000000     0.041630000000    -0.625745   
O95      O      0.532560000000     0.034240000000     0.924330000000    -0.624358   
O96      O      0.429220000000     0.926190000000     0.041430000000    -0.474764   
Zr1      Zr     0.881140000000     0.989560000000     0.483070000000     1.30816    
Zr2      Zr     0.992740000000     0.080100000000     0.480100000000     1.31783    
Zr3      Zr     0.970250000000     0.880700000000     0.484480000000     1.32163    
Zr4      Zr     0.081760000000     0.971310000000     0.481490000000     1.3098     
Zr5      Zr     0.980960000000     0.978960000000     0.390850000000     1.27084    
Zr6      Zr     0.981730000000     0.981760000000     0.573690000000     1.27653    
Zr7      Zr     0.980970000000     0.478310000000     0.082870000000     1.29797    
Zr8      Zr     0.880890000000     0.481710000000     0.979760000000     1.30721    
Zr9      Zr     0.081720000000     0.478660000000     0.984620000000     1.3202     
Zr10     Zr     0.981520000000     0.482380000000     0.881750000000     1.29768    
Zr11     Zr     0.980610000000     0.388830000000     0.980870000000     1.27822    
Zr12     Zr     0.982270000000     0.571660000000     0.983860000000     1.26566    
Zr13     Zr     0.478970000000     0.080590000000     0.975460000000     1.29627    
Zr14     Zr     0.479430000000     0.982950000000     0.083100000000     1.30729    
Zr15     Zr     0.482980000000     0.977660000000     0.882210000000     1.29721    
Zr16     Zr     0.483110000000     0.879890000000     0.990120000000     1.29791    
Zr17     Zr     0.572630000000     0.981900000000     0.983640000000     1.26917    
Zr18     Zr     0.389830000000     0.978570000000     0.981620000000     1.26561    


