data_structure

_audit_creation_method RASPA-1.0
_audit_creation_date 2023-6-5
_audit_author_name 'Poobodin Mano'

_cell_length_a    21.0249
_cell_length_b    21.2807
_cell_length_c    21.203
_cell_angle_alpha 89.2564
_cell_angle_beta  89.2563
_cell_angle_gamma 89.2563
_cell_volume      9484.37

_symmetry_cell_setting          triclinic
_symmetry_space_group_name_Hall 'P 1'
_symmetry_space_group_name_H-M  'P 1'
_symmetry_Int_Tables_number     1

_symmetry_equiv_pos_as_xyz 'x,y,z'

loop_
_atom_site_label
_atom_site_type_symbol
_atom_site_fract_x
_atom_site_fract_y
_atom_site_fract_z
_atom_site_charge
C1       C      0.827030000000     0.994150000000     0.315150000000     0.373498   
C2       C      0.988540000000     0.131640000000     0.642600000000     0.372657   
C3       C      0.004780000000     0.129750000000     0.314080000000     0.389467   
C4       C      0.822760000000     0.984530000000     0.643870000000     0.381804   
C5       C      0.953950000000     0.823860000000     0.646560000000     0.390294   
C6       C      0.135300000000     0.938440000000     0.317850000000     0.381433   
C7       C      0.137300000000     0.969730000000     0.644620000000     0.387738   
C8       C      0.965130000000     0.822960000000     0.316990000000     0.384361   
C9       C      0.976720000000     0.315150000000     0.138410000000     0.378864   
C10      C      0.831200000000     0.647250000000     0.977670000000     0.37627    
C11      C      0.828400000000     0.319010000000     0.001410000000     0.381928   
C12      C      0.992720000000     0.641950000000     0.136030000000     0.377808   
C13      C      0.144950000000     0.638400000000     0.983370000000     0.388488   
C14      C      0.992960000000     0.314200000000     0.828390000000     0.385275   
C15      C      0.987050000000     0.642320000000     0.824360000000     0.378953   
C16      C      0.139810000000     0.311590000000     0.980820000000     0.389543   
C17      C      0.642140000000     0.137130000000     0.001930000000     0.385969   
C18      C      0.319020000000     0.943260000000     0.133760000000     0.389961   
C19      C      0.650570000000     0.959630000000     0.131020000000     0.387134   
C20      C      0.311580000000     0.124970000000     0.013450000000     0.380676   
C21      C      0.315100000000     0.005260000000     0.828780000000     0.375885   
C22      C      0.655230000000     0.832560000000     0.943500000000     0.385536   
C23      C      0.323520000000     0.822360000000     0.954800000000     0.378941   
C24      C      0.646830000000     0.019110000000     0.825040000000     0.385143   
C25      C      0.718510000000     0.682330000000     0.970270000000    -0.017804   
C26      C      0.804920000000     0.761770000000     0.983600000000    -0.0654513  
C27      C      0.689930000000     0.723870000000     0.918480000000    -0.0106067  
C28      C      0.772820000000     0.804070000000     0.933560000000     0.165469   
C29      C      0.802350000000     0.206930000000     0.022080000000    -0.0131209  
C30      C      0.720310000000     0.290230000000     0.038830000000    -0.0642543  
C31      C      0.754450000000     0.166480000000     0.988050000000    -0.0143198  
C32      C      0.669870000000     0.250890000000     0.006500000000     0.163723   
C33      C      0.209380000000     0.793400000000     0.946190000000    -0.0142024  
C34      C      0.294760000000     0.711290000000     0.937120000000    -0.0646122  
C35      C      0.172600000000     0.751000000000     0.992540000000    -0.0139218  
C36      C      0.260290000000     0.670060000000     0.985980000000     0.160979   
C37      C      0.195850000000     0.152820000000     0.017990000000    -0.0140883  
C38      C      0.277440000000     0.232620000000     0.041580000000    -0.0631711  
C39      C      0.166330000000     0.198070000000     0.968940000000    -0.0139344  
C40      C      0.253920000000     0.274720000000     0.987930000000     0.159607   
C41      C      0.709050000000     0.988690000000     0.676690000000    -0.0158426  
C42      C      0.794850000000     0.979170000000     0.758170000000    -0.0643814  
C43      C      0.678380000000     0.042050000000     0.714310000000    -0.0112976  
C44      C      0.762840000000     0.032670000000     0.794780000000     0.165983   
C45      C      0.199430000000     0.006900000000     0.802040000000    -0.0136681  
C46      C      0.281650000000     0.025830000000     0.718530000000    -0.0668482  
C47      C      0.165280000000     0.961360000000     0.758210000000    -0.0138356  
C48      C      0.252180000000     0.976010000000     0.676990000000     0.163594   
C49      C      0.242510000000     0.898620000000     0.286720000000    -0.0152588  
C50      C      0.158210000000     0.908940000000     0.206750000000    -0.0663779  
C51      C      0.288610000000     0.936010000000     0.245670000000    -0.0104188  
C52      C      0.203250000000     0.943340000000     0.160750000000     0.163866   
C53      C      0.714290000000     0.999700000000     0.281330000000    -0.0189565  
C54      C      0.802040000000     0.004250000000     0.200640000000    -0.0632588  
C55      C      0.681600000000     0.949290000000     0.243160000000    -0.00995551 
C56      C      0.767330000000     0.955740000000     0.160610000000     0.16103    
C57      C      0.980540000000     0.243660000000     0.672700000000    -0.0186485  
C58      C      0.969470000000     0.158560000000     0.754910000000    -0.0682504  
C59      C      0.018230000000     0.282520000000     0.718900000000    -0.00971132 
C60      C      0.005300000000     0.199070000000     0.802160000000     0.166499   
C61      C      0.997290000000     0.755480000000     0.794150000000    -0.0190095  
C62      C      0.981300000000     0.673520000000     0.711570000000    -0.0680528  
C63      C      0.947550000000     0.797650000000     0.761280000000    -0.0108268  
C64      C      0.927720000000     0.713740000000     0.683740000000     0.163001   
C65      C      0.003310000000     0.673690000000     0.247730000000    -0.00960461 
C66      C      0.999860000000     0.755570000000     0.161890000000    -0.0677246  
C67      C      0.954820000000     0.711680000000     0.286130000000    -0.0155678  
C68      C      0.952830000000     0.794860000000     0.201840000000     0.162552   
C69      C      0.972980000000     0.281330000000     0.250850000000    -0.0172884  
C70      C      0.963060000000     0.201860000000     0.165350000000    -0.0684238  
C71      C      0.024030000000     0.240240000000     0.281770000000    -0.0107841  
C72      C      0.012990000000     0.159860000000     0.198090000000     0.165102   
H1       H      0.892310000000     0.082600000000     0.568370000000     0.210066   
H2       H      0.092200000000     0.060430000000     0.384620000000     0.20289    
H3       H      0.067330000000     0.869230000000     0.572250000000     0.206787   
H4       H      0.873550000000     0.890410000000     0.387460000000     0.206171   
H5       H      0.116820000000     0.165540000000     0.468560000000     0.126049   
H6       H      0.206650000000     0.068480000000     0.473810000000     0.189464   
H7       H      0.163330000000     0.839890000000     0.463000000000     0.144612   
H8       H      0.060240000000     0.749690000000     0.526510000000     0.201454   
H9       H      0.846270000000     0.785830000000     0.481520000000     0.127106   
H10      H      0.750660000000     0.889120000000     0.474960000000     0.185822   
H11      H      0.795980000000     0.106820000000     0.440340000000     0.148621   
H12      H      0.897540000000     0.202660000000     0.512790000000     0.19873    
H13      H      0.068910000000     0.754070000000     0.448020000000     0.20128    
H14      H      0.711020000000     0.957630000000     0.480360000000     0.20046    
H15      H      0.898140000000     0.198850000000     0.434050000000     0.202568   
H16      H      0.248650000000     0.002010000000     0.463130000000     0.207233   
H17      H      0.888410000000     0.570770000000     0.078190000000     0.206138   
H18      H      0.885020000000     0.385950000000     0.885840000000     0.203303   
H19      H      0.084350000000     0.565490000000     0.882920000000     0.208854   
H20      H      0.082300000000     0.382220000000     0.080400000000     0.20448    
H21      H      0.783460000000     0.496970000000     0.866790000000     0.131287   
H22      H      0.867730000000     0.463430000000     0.770340000000     0.184757   
H23      H      0.100820000000     0.449090000000     0.788960000000     0.146637   
H24      H      0.204640000000     0.516100000000     0.877110000000     0.206136   
H25      H      0.191150000000     0.459080000000     0.093100000000     0.12569    
H26      H      0.101530000000     0.466750000000     0.195370000000     0.186085   
H27      H      0.870380000000     0.449380000000     0.175860000000     0.146835   
H28      H      0.783570000000     0.507880000000     0.102170000000     0.193632   
H29      H      0.201050000000     0.437750000000     0.873740000000     0.206071   
H30      H      0.038790000000     0.476150000000     0.243940000000     0.202871   
H31      H      0.729640000000     0.479990000000     0.052780000000     0.202872   
H32      H      0.925810000000     0.488560000000     0.721890000000     0.20218    
H33      H      0.390450000000     0.051370000000     0.093820000000     0.208389   
H34      H      0.583810000000     0.866540000000     0.056090000000     0.204193   
H35      H      0.395850000000     0.900580000000     0.867330000000     0.209068   
H36      H      0.572120000000     0.096830000000     0.899600000000     0.205622   
H37      H      0.486450000000     0.824410000000     0.153020000000     0.127854   
H38      H      0.509180000000     0.746780000000     0.052310000000     0.184066   
H39      H      0.523570000000     0.813140000000     0.832720000000     0.14759    
H40      H      0.447210000000     0.917700000000     0.748070000000     0.19676    
H41      H      0.481510000000     0.130270000000     0.798590000000     0.125547   
H42      H      0.478010000000     0.211970000000     0.905410000000     0.184981   
H43      H      0.518720000000     0.149050000000     0.121260000000     0.155042   
H44      H      0.456970000000     0.057920000000     0.195110000000     0.195463   
H45      H      0.526720000000     0.917840000000     0.750220000000     0.200506   
H46      H      0.464150000000     0.245340000000     0.975420000000     0.203897   
H47      H      0.497270000000     0.003910000000     0.237070000000     0.203006   
H48      H      0.485520000000     0.712270000000     0.986260000000     0.200572   
H49      H      0.712550000000     0.710570000000     0.872750000000     0.0382816  
H50      H      0.708600000000     0.632500000000     0.959400000000     0.0447931  
H51      H      0.795130000000     0.791150000000     0.887320000000     0.00136497 
H52      H      0.857200000000     0.768630000000     0.980830000000     0.0661225  
H53      H      0.638390000000     0.713870000000     0.914980000000     0.0422441  
H54      H      0.694090000000     0.693560000000     0.015660000000     0.0396557  
H55      H      0.788460000000     0.777350000000     0.031020000000     0.0631912  
H56      H      0.785530000000     0.890200000000     0.905430000000     0.160521   
H57      H      0.761270000000     0.173720000000     0.936380000000     0.0377093  
H58      H      0.850650000000     0.196420000000     0.002730000000     0.051322   
H59      H      0.665940000000     0.267810000000     0.956630000000    -0.000385906
H60      H      0.708260000000     0.340800000000     0.031620000000     0.0570617  
H61      H      0.766150000000     0.116420000000     0.998880000000     0.0537478  
H62      H      0.801970000000     0.193150000000     0.072880000000     0.0437496  
H63      H      0.717720000000     0.280450000000     0.090490000000     0.0614005  
H64      H      0.592060000000     0.299630000000     0.020630000000     0.137086   
H65      H      0.184550000000     0.765200000000     0.041240000000     0.0491445  
H66      H      0.199040000000     0.843310000000     0.957720000000     0.0509135  
H67      H      0.277860000000     0.682500000000     0.033640000000     0.00825132 
H68      H      0.346720000000     0.701580000000     0.939750000000     0.0581051  
H69      H      0.120890000000     0.760170000000     0.986440000000     0.0479342  
H70      H      0.191320000000     0.785060000000     0.897990000000     0.0388989  
H71      H      0.279070000000     0.697750000000     0.889310000000     0.058303   
H72      H      0.316630000000     0.597140000000     0.993480000000     0.14154    
H73      H      0.184680000000     0.184270000000     0.921600000000     0.0412099  
H74      H      0.188150000000     0.103570000000     0.003390000000     0.046435   
H75      H      0.278890000000     0.260230000000     0.943530000000     0.0052342  
H76      H      0.328670000000     0.241170000000     0.049850000000     0.0607196  
H77      H      0.114020000000     0.191360000000     0.968910000000     0.0479639  
H78      H      0.170460000000     0.159920000000     0.063740000000     0.0394052  
H79      H      0.251050000000     0.245460000000     0.085510000000     0.0580455  
H80      H      0.313490000000     0.343930000000     0.987870000000     0.137533   
H81      H      0.698750000000     0.087190000000     0.697020000000     0.0378193  
H82      H      0.699300000000     0.996800000000     0.625840000000     0.0428651  
H83      H      0.783820000000     0.077180000000     0.775930000000     0.000892781
H84      H      0.847020000000     0.980290000000     0.765800000000     0.0675077  
H85      H      0.626550000000     0.043760000000     0.704830000000     0.0449671  
H86      H      0.685980000000     0.943950000000     0.691230000000     0.039123   
H87      H      0.777200000000     0.933710000000     0.777590000000     0.061409   
H88      H      0.772160000000     0.068700000000     0.877550000000     0.149509   
H89      H      0.179770000000     0.912670000000     0.771850000000     0.037388   
H90      H      0.191550000000     0.991540000000     0.851790000000     0.0443993  
H91      H      0.274530000000     0.929610000000     0.689180000000     0.000769644
H92      H      0.333430000000     0.028290000000     0.707760000000     0.0621869  
H93      H      0.113220000000     0.965600000000     0.767150000000     0.0452751  
H94      H      0.176890000000     0.054150000000     0.796280000000     0.041542   
H95      H      0.260170000000     0.072350000000     0.706090000000     0.0639852  
H96      H      0.308740000000     0.974490000000     0.603600000000     0.136693   
H97      H      0.288090000000     0.985520000000     0.261850000000     0.0356519  
H98      H      0.254870000000     0.904830000000     0.337030000000     0.0417002  
H99      H      0.191590000000     0.994620000000     0.162410000000     0.00441303 
H100     H      0.108560000000     0.924740000000     0.197520000000     0.0702658  
H101     H      0.337160000000     0.916550000000     0.253990000000     0.0453618  
H102     H      0.248800000000     0.847940000000     0.275640000000     0.0415349  
H103     H      0.160900000000     0.857730000000     0.196790000000     0.0635437  
H104     H      0.154980000000     0.944190000000     0.082970000000     0.141281   
H105     H      0.698830000000     0.902450000000     0.260020000000     0.0365513  
H106     H      0.702550000000     0.992100000000     0.332080000000     0.0405777  
H107     H      0.786200000000     0.908240000000     0.174160000000     0.00409261 
H108     H      0.854180000000     0.998620000000     0.192980000000     0.0675256  
H109     H      0.629710000000     0.952150000000     0.253380000000     0.0405426  
H110     H      0.694430000000     0.046360000000     0.267010000000     0.0429016  
H111     H      0.788340000000     0.052080000000     0.183430000000     0.0642407  
H112     H      0.823090000000     0.948540000000     0.087060000000     0.144001   
H113     H      0.069660000000     0.271620000000     0.711570000000     0.0409701  
H114     H      0.998450000000     0.254200000000     0.624210000000     0.0457423  
H115     H      0.056670000000     0.185180000000     0.799730000000     0.00304553 
H116     H      0.980820000000     0.108320000000     0.765220000000     0.0617298  
H117     H      0.010830000000     0.332980000000     0.706650000000     0.0444297  
H118     H      0.929860000000     0.259130000000     0.675220000000     0.037177   
H119     H      0.917460000000     0.165450000000     0.762960000000     0.0610779  
H120     H      0.002810000000     0.147860000000     0.878850000000     0.141198   
H121     H      0.900790000000     0.789810000000     0.785050000000     0.0404239  
H122     H      0.995230000000     0.764350000000     0.845660000000     0.046829   
H123     H      0.883030000000     0.702640000000     0.710470000000     0.00440729 
H124     H      0.971080000000     0.623220000000     0.703330000000     0.058667   
H125     H      0.959980000000     0.847630000000     0.768280000000     0.0456535  
H126     H      0.045180000000     0.769600000000     0.776680000000     0.0409905  
H127     H      0.026430000000     0.684880000000     0.686170000000     0.0596433  
H128     H      0.894690000000     0.660000000000     0.618620000000     0.138889   
H129     H      0.906390000000     0.695490000000     0.274200000000     0.0406408  
H130     H      0.997060000000     0.623040000000     0.259210000000     0.0419978  
H131     H      0.903770000000     0.781460000000     0.188150000000     0.00180221 
H132     H      0.989780000000     0.764010000000     0.111140000000     0.0616875  
H133     H      0.962390000000     0.700920000000     0.336900000000     0.0462685  
H134     H      0.051790000000     0.686860000000     0.262770000000     0.0399903  
H135     H      0.048820000000     0.772350000000     0.170700000000     0.0639807  
H136     H      0.938350000000     0.868960000000     0.148960000000     0.137725   
H137     H      0.071140000000     0.254510000000     0.262290000000     0.036193   
H138     H      0.982590000000     0.331320000000     0.261240000000     0.0416041  
H139     H      0.060610000000     0.172450000000     0.178080000000     0.00137995 
H140     H      0.966050000000     0.194410000000     0.113620000000     0.0627836  
H141     H      0.024090000000     0.249920000000     0.333110000000     0.0448579  
H142     H      0.926130000000     0.269380000000     0.272490000000     0.0400396  
H143     H      0.915040000000     0.186750000000     0.181600000000     0.0622329  
H144     H      0.018140000000     0.087690000000     0.142850000000     0.139167   
N1       N      0.703850000000     0.790180000000     0.931590000000    -0.180494   
N2       N      0.787010000000     0.695280000000     0.975930000000    -0.156337   
N3       N      0.687740000000     0.182950000000     0.004800000000    -0.174779   
N4       N      0.784580000000     0.273730000000     0.016120000000    -0.155824   
N5       N      0.190760000000     0.684060000000     0.984660000000    -0.176153   
N6       N      0.277860000000     0.777720000000     0.947310000000    -0.155689   
N7       N      0.184670000000     0.264050000000     0.980220000000    -0.177848   
N8       N      0.263580000000     0.167220000000     0.025810000000    -0.157455   
N9       N      0.693710000000     0.032840000000     0.781510000000    -0.182304   
N10      N      0.777590000000     0.984250000000     0.690910000000    -0.157047   
N11      N      0.182740000000     0.971780000000     0.690960000000    -0.175586   
N12      N      0.267520000000     0.011460000000     0.785210000000    -0.15569    
N13      N      0.271400000000     0.935490000000     0.178130000000    -0.176152   
N14      N      0.177260000000     0.918500000000     0.272220000000    -0.15622    
N15      N      0.697940000000     0.956750000000     0.175440000000    -0.175757   
N16      N      0.783200000000     0.998360000000     0.267750000000    -0.155698   
N17      N      0.000570000000     0.266900000000     0.784880000000    -0.175552   
N18      N      0.984550000000     0.176180000000     0.688930000000    -0.154976   
N19      N      0.942700000000     0.780700000000     0.694140000000    -0.177877   
N20      N      0.987890000000     0.688660000000     0.778880000000    -0.156219   
N21      N      0.959930000000     0.779180000000     0.270040000000    -0.176216   
N22      N      0.996660000000     0.688510000000     0.179970000000    -0.156581   
N23      N      0.013210000000     0.173660000000     0.266620000000    -0.178357   
N24      N      0.971560000000     0.268140000000     0.182830000000    -0.156972   
O1       O      0.806250000000     0.993840000000     0.373010000000    -0.364914   
O2       O      0.886680000000     0.990090000000     0.299750000000    -0.343817   
O3       O      0.995470000000     0.150730000000     0.584590000000    -0.357052   
O4       O      0.982760000000     0.073120000000     0.658920000000    -0.350685   
O5       O      0.006190000000     0.149050000000     0.371730000000    -0.366286   
O6       O      0.996770000000     0.071670000000     0.299370000000    -0.336981   
O7       O      0.803610000000     0.986170000000     0.586050000000    -0.356213   
O8       O      0.881940000000     0.982780000000     0.659680000000    -0.351539   
O9       O      0.790330000000     0.087920000000     0.482930000000    -0.344443   
O10      O      0.750750000000     0.934370000000     0.478130000000    -0.51165    
O11      O      0.914720000000     0.185060000000     0.474280000000    -0.511681   
O12      O      0.076400000000     0.187410000000     0.479510000000    -0.327562   
O13      O      0.917870000000     0.055350000000     0.415910000000    -0.469031   
O14      O      0.916650000000     0.054420000000     0.541760000000    -0.60823    
O15      O      0.950870000000     0.805380000000     0.588820000000    -0.341676   
O16      O      0.966660000000     0.880970000000     0.661830000000    -0.355983   
O17      O      0.154990000000     0.940330000000     0.375410000000    -0.363818   
O18      O      0.077830000000     0.952280000000     0.301360000000    -0.345911   
O19      O      0.156440000000     0.967940000000     0.586470000000    -0.335117   
O20      O      0.077640000000     0.969970000000     0.661070000000    -0.351923   
O21      O      0.962960000000     0.803310000000     0.375200000000    -0.360824   
O22      O      0.971170000000     0.881390000000     0.301180000000    -0.330854   
O23      O      0.048020000000     0.767840000000     0.486380000000    -0.51454    
O24      O      0.887960000000     0.763670000000     0.480240000000    -0.319003   
O25      O      0.179370000000     0.870160000000     0.493900000000    -0.335379   
O26      O      0.208370000000     0.023260000000     0.470390000000    -0.511355   
O27      O      0.044520000000     0.897560000000     0.544360000000    -0.61056    
O28      O      0.045820000000     0.897780000000     0.418660000000    -0.468988   
O29      O      0.900480000000     0.913170000000     0.548380000000    -0.472422   
O30      O      0.062410000000     0.039110000000     0.412310000000    -0.621766   
O31      O      0.901980000000     0.913030000000     0.414190000000    -0.62575    
O32      O      0.060840000000     0.040120000000     0.547260000000    -0.47246    
O33      O      0.979550000000     0.372570000000     0.157700000000    -0.364432   
O34      O      0.978380000000     0.299700000000     0.079710000000    -0.352104   
O35      O      0.810800000000     0.590050000000     0.976070000000    -0.358048   
O36      O      0.890700000000     0.661390000000     0.980860000000    -0.353666   
O37      O      0.809330000000     0.377220000000     0.999600000000    -0.35514    
O38      O      0.886810000000     0.301500000000     0.992360000000    -0.351046   
O39      O      0.993360000000     0.584210000000     0.156100000000    -0.355448   
O40      O      0.989140000000     0.657930000000     0.077030000000    -0.34985    
O41      O      0.896820000000     0.486210000000     0.185120000000    -0.345797   
O42      O      0.056280000000     0.472790000000     0.201720000000    -0.512666   
O43      O      0.772880000000     0.491810000000     0.061290000000    -0.508519   
O44      O      0.766390000000     0.477410000000     0.906000000000    -0.34304    
O45      O      0.912560000000     0.418500000000     0.053900000000    -0.466612   
O46      O      0.914120000000     0.542950000000     0.052420000000    -0.609528   
O47      O      0.163110000000     0.580180000000     0.985900000000    -0.341541   
O48      O      0.085810000000     0.655800000000     0.980220000000    -0.35218    
O49      O      0.991970000000     0.371920000000     0.807910000000    -0.362263   
O50      O      0.988710000000     0.299200000000     0.887510000000    -0.335625   
O51      O      0.983210000000     0.584730000000     0.805960000000    -0.357341   
O52      O      0.990290000000     0.658300000000     0.882890000000    -0.353189   
O53      O      0.159330000000     0.368860000000     0.981700000000    -0.347606   
O54      O      0.080330000000     0.296890000000     0.980720000000    -0.351956   
O55      O      0.188570000000     0.476740000000     0.893520000000    -0.512888   
O56      O      0.208710000000     0.471070000000     0.051150000000    -0.310171   
O57      O      0.070320000000     0.481890000000     0.774490000000    -0.336703   
O58      O      0.911160000000     0.476520000000     0.763650000000    -0.515702   
O59      O      0.057620000000     0.539170000000     0.909260000000    -0.609848   
O60      O      0.056580000000     0.414590000000     0.910610000000    -0.469817   
O61      O      0.059090000000     0.544450000000     0.053100000000    -0.472957   
O62      O      0.911170000000     0.413110000000     0.910540000000    -0.623018   
O63      O      0.056960000000     0.410160000000     0.054340000000    -0.622879   
O64      O      0.913380000000     0.548350000000     0.908810000000    -0.475073   
O65      O      0.582910000000     0.154280000000     0.004950000000    -0.348896   
O66      O      0.660510000000     0.079400000000     0.993850000000    -0.346364   
O67      O      0.377510000000     0.938960000000     0.152170000000    -0.359292   
O68      O      0.303180000000     0.956230000000     0.076370000000    -0.338408   
O69      O      0.592320000000     0.952820000000     0.150470000000    -0.360016   
O70      O      0.665890000000     0.969060000000     0.072440000000    -0.327736   
O71      O      0.369220000000     0.145390000000     0.014340000000    -0.360642   
O72      O      0.297180000000     0.067400000000     0.001930000000    -0.349421   
O73      O      0.477060000000     0.159580000000     0.102310000000    -0.342235   
O74      O      0.472100000000     0.208240000000     0.950570000000    -0.51162    
O75      O      0.478620000000     0.017660000000     0.197740000000    -0.50953    
O76      O      0.491380000000     0.861640000000     0.179960000000    -0.336323   
O77      O      0.544560000000     0.036130000000     0.061760000000    -0.467407   
O78      O      0.418330000000     0.032030000000     0.062930000000    -0.612168   
O79      O      0.373310000000     0.012600000000     0.809300000000    -0.358875   
O80      O      0.299730000000     0.992070000000     0.886690000000    -0.351972   
O81      O      0.597550000000     0.811970000000     0.942370000000    -0.366684   
O82      O      0.668840000000     0.890250000000     0.955420000000    -0.33504    
O83      O      0.382660000000     0.804400000000     0.952650000000    -0.355415   
O84      O      0.305300000000     0.879930000000     0.963250000000    -0.347688   
O85      O      0.588310000000     0.021870000000     0.806590000000    -0.365279   
O86      O      0.663060000000     0.004770000000     0.882010000000    -0.339331   
O87      O      0.486050000000     0.932760000000     0.766110000000    -0.515116   
O88      O      0.477210000000     0.091630000000     0.773560000000    -0.328563   
O89      O      0.486580000000     0.796830000000     0.856900000000    -0.340629   
O90      O      0.495620000000     0.749840000000     0.009000000000    -0.511897   
O91      O      0.422340000000     0.921650000000     0.897130000000    -0.612521   
O92      O      0.548970000000     0.925300000000     0.895150000000    -0.469925   
O93      O      0.411100000000     0.062520000000     0.922060000000    -0.476919   
O94      O      0.554790000000     0.895830000000     0.035930000000    -0.623611   
O95      O      0.546620000000     0.065290000000     0.920670000000    -0.626137   
O96      O      0.418410000000     0.891760000000     0.038020000000    -0.472991   
O97      O      0.785290000000     0.867260000000     0.946520000000    -0.271855   
O98      O      0.611730000000     0.260840000000     0.038720000000    -0.271822   
O99      O      0.275130000000     0.606780000000     0.973460000000    -0.270795   
O100     O      0.268640000000     0.337350000000     0.001410000000    -0.264574   
O101     O      0.776770000000     0.026200000000     0.859150000000    -0.273303   
O102     O      0.265660000000     0.991600000000     0.613610000000    -0.269516   
O103     O      0.192270000000     0.920620000000     0.099830000000    -0.268274   
O104     O      0.780620000000     0.967440000000     0.096410000000    -0.260615   
O105     O      0.980840000000     0.186410000000     0.862990000000    -0.27168    
O106     O      0.919840000000     0.699140000000     0.619880000000    -0.266912   
O107     O      0.961940000000     0.858960000000     0.188190000000    -0.266744   
O108     O      0.000620000000     0.096500000000     0.185590000000    -0.26555    
Zr1      Zr     0.850220000000     0.989220000000     0.479820000000     1.29321    
Zr2      Zr     0.997040000000     0.105210000000     0.478620000000     1.29078    
Zr3      Zr     0.965550000000     0.847460000000     0.481880000000     1.29696    
Zr4      Zr     0.112240000000     0.963410000000     0.480740000000     1.29672    
Zr5      Zr     0.982470000000     0.976270000000     0.361720000000     1.27248    
Zr6      Zr     0.980160000000     0.976350000000     0.599180000000     1.25843    
Zr7      Zr     0.986990000000     0.478790000000     0.112190000000     1.29226    
Zr8      Zr     0.853580000000     0.482250000000     0.980080000000     1.28814    
Zr9      Zr     0.116520000000     0.475780000000     0.982940000000     1.3045     
Zr10     Zr     0.983080000000     0.478500000000     0.851110000000     1.28968    
Zr11     Zr     0.983870000000     0.360820000000     0.982970000000     1.26944    
Zr12     Zr     0.987040000000     0.597230000000     0.980460000000     1.25862    
Zr13     Zr     0.477940000000     0.106390000000     0.001260000000     1.30316    
Zr14     Zr     0.484700000000     0.950630000000     0.107010000000     1.29292    
Zr15     Zr     0.481530000000     0.006640000000     0.851350000000     1.29614    
Zr16     Zr     0.488480000000     0.851120000000     0.957280000000     1.29093    
Zr17     Zr     0.602940000000     0.982430000000     0.977650000000     1.27161    
Zr18     Zr     0.363570000000     0.975670000000     0.980600000000     1.26466    


