data_structure

_audit_creation_method RASPA-1.0
_audit_creation_date 2023-6-5
_audit_author_name 'Poobodin Mano'

_cell_length_a    21.3006
_cell_length_b    21.2396
_cell_length_c    21.2354
_cell_angle_alpha 89.2564
_cell_angle_beta  89.2563
_cell_angle_gamma 89.2563
_cell_volume      9604.83

_symmetry_cell_setting          triclinic
_symmetry_space_group_name_Hall 'P 1'
_symmetry_space_group_name_H-M  'P 1'
_symmetry_Int_Tables_number     1

_symmetry_equiv_pos_as_xyz 'x,y,z'

loop_
_atom_site_label
_atom_site_type_symbol
_atom_site_fract_x
_atom_site_fract_y
_atom_site_fract_z
_atom_site_charge
C1       C      0.821070000000     0.974610000000     0.318940000000     0.373578   
C2       C      0.984120000000     0.132340000000     0.642200000000     0.395689   
C3       C      0.958090000000     0.125510000000     0.314170000000     0.382222   
C4       C      0.823360000000     0.989120000000     0.646470000000     0.401297   
C5       C      0.961490000000     0.822990000000     0.648630000000     0.401625   
C6       C      0.129920000000     0.960130000000     0.313970000000     0.402275   
C7       C      0.133740000000     0.968270000000     0.641970000000     0.396196   
C8       C      0.978460000000     0.817230000000     0.320690000000     0.396868   
C9       C      0.965290000000     0.312110000000     0.134440000000     0.399213   
C10      C      0.826460000000     0.642820000000     0.966350000000     0.400875   
C11      C      0.827470000000     0.314530000000     0.962510000000     0.394104   
C12      C      0.961080000000     0.639420000000     0.135490000000     0.376335   
C13      C      0.132800000000     0.641650000000     0.003800000000     0.376493   
C14      C      0.003700000000     0.315580000000     0.824550000000     0.372673   
C15      C      0.997430000000     0.643770000000     0.826390000000     0.379979   
C16      C      0.135270000000     0.312770000000     0.999100000000     0.394324   
C17      C      0.640870000000     0.135210000000     0.979100000000     0.374554   
C18      C      0.312030000000     0.987360000000     0.134380000000     0.378485   
C19      C      0.639120000000     0.991290000000     0.135980000000     0.3987     
C20      C      0.314080000000     0.134960000000     0.964610000000     0.381389   
C21      C      0.316010000000     0.984510000000     0.824460000000     0.375344   
C22      C      0.642530000000     0.826730000000     0.965730000000     0.381857   
C23      C      0.316080000000     0.823830000000     0.986120000000     0.395046   
C24      C      0.643810000000     0.966040000000     0.827290000000     0.380488   
C25      C      0.673890000000     0.718620000000     0.934640000000    -0.0192628  
C26      C      0.754530000000     0.802040000000     0.941530000000    -0.102125   
C27      C      0.714680000000     0.673490000000     0.972900000000    -0.0101092  
C28      C      0.798410000000     0.756770000000     0.977130000000     0.317225   
C29      C      0.672410000000     0.247160000000     0.984030000000    -0.0217522  
C30      C      0.753180000000     0.160950000000     0.995320000000    -0.105538   
C31      C      0.717720000000     0.284010000000     0.941650000000    -0.00956299 
C32      C      0.799790000000     0.199820000000     0.955430000000     0.319134   
C33      C      0.157920000000     0.755730000000     0.013200000000    -0.0162558  
C34      C      0.241060000000     0.673650000000     0.029530000000    -0.103858   
C35      C      0.204110000000     0.795370000000     0.973480000000    -0.0114638  
C36      C      0.286200000000     0.710060000000     0.986690000000     0.317027   
C37      C      0.281120000000     0.246980000000     0.954270000000    -0.0196002  
C38      C      0.200310000000     0.162310000000     0.957340000000    -0.106389   
C39      C      0.246900000000     0.280470000000     0.007950000000    -0.00788707 
C40      C      0.164470000000     0.197730000000     0.009230000000     0.323291   
C41      C      0.757530000000     0.953290000000     0.799950000000    -0.0215357  
C42      C      0.676110000000     0.952390000000     0.715910000000    -0.11104    
C43      C      0.796020000000     0.000310000000     0.760180000000    -0.00505879 
C44      C      0.710910000000     0.003820000000     0.680120000000     0.328303   
C45      C      0.202730000000     0.995730000000     0.797470000000    -0.0214421  
C46      C      0.285610000000     0.998750000000     0.712820000000    -0.109419   
C47      C      0.161440000000     0.955760000000     0.755000000000    -0.00928523 
C48      C      0.246680000000     0.955300000000     0.672660000000     0.322846   
C49      C      0.278540000000     0.994650000000     0.246350000000    -0.021522   
C50      C      0.198070000000     0.996920000000     0.161070000000    -0.107131   
C51      C      0.241090000000     0.944510000000     0.281620000000    -0.00753004 
C52      C      0.158740000000     0.949270000000     0.198970000000     0.322153   
C53      C      0.793540000000     0.963170000000     0.206000000000    -0.0237458  
C54      C      0.709190000000     0.967510000000     0.289610000000    -0.108989   
C55      C      0.751840000000     0.003690000000     0.162430000000    -0.00340668 
C56      C      0.670310000000     0.011320000000     0.247630000000     0.325554   
C57      C      0.023440000000     0.283790000000     0.713510000000    -0.0184819  
C58      C      0.016670000000     0.201970000000     0.798580000000    -0.104414   
C59      C      0.981010000000     0.244870000000     0.671850000000    -0.0101178  
C60      C      0.975900000000     0.161120000000     0.756530000000     0.319807   
C61      C      0.005610000000     0.757920000000     0.798110000000    -0.0163787  
C62      C      0.001510000000     0.676170000000     0.714090000000    -0.10109    
C63      C      0.954980000000     0.796650000000     0.763280000000    -0.0114312  
C64      C      0.946460000000     0.711190000000     0.684480000000     0.319049   
C65      C      0.951870000000     0.752880000000     0.163580000000    -0.0187504  
C66      C      0.939500000000     0.669070000000     0.246390000000    -0.104326   
C67      C      0.993710000000     0.789880000000     0.207970000000    -0.0135039  
C68      C      0.983900000000     0.703740000000     0.289350000000     0.318013   
C69      C      0.939410000000     0.151830000000     0.201250000000    -0.0155386  
C70      C      0.920960000000     0.232300000000     0.283610000000    -0.103224   
C71      C      0.977160000000     0.199070000000     0.161510000000    -0.0145715  
C72      C      0.960890000000     0.279700000000     0.247540000000     0.318897   
F1       F      0.859410000000     0.769830000000     0.957980000000    -0.435623   
F2       F      0.859850000000     0.186680000000     0.976660000000    -0.426355   
F3       F      0.346660000000     0.696730000000     0.006730000000    -0.432568   
F4       F      0.100950000000     0.185570000000     0.004850000000    -0.42534    
F5       F      0.695880000000     0.001150000000     0.616940000000    -0.434178   
F6       F      0.261770000000     0.967080000000     0.609970000000    -0.436503   
F7       F      0.095790000000     0.960150000000     0.186660000000    -0.432954   
F8       F      0.607530000000     0.004210000000     0.263710000000    -0.438608   
F9       F      0.989780000000     0.098540000000     0.770240000000    -0.429174   
F10      F      0.943120000000     0.695760000000     0.621430000000    -0.429533   
F11      F      0.967590000000     0.689260000000     0.351190000000    -0.42891    
F12      F      0.936170000000     0.339050000000     0.259890000000    -0.439686   
H1       H      0.884430000000     0.077350000000     0.568450000000     0.214654   
H2       H      0.076270000000     0.068230000000     0.380890000000     0.208413   
H3       H      0.070920000000     0.875460000000     0.571210000000     0.211657   
H4       H      0.876810000000     0.878740000000     0.391030000000     0.211114   
H5       H      0.096670000000     0.173220000000     0.493200000000     0.138149   
H6       H      0.190160000000     0.085840000000     0.469910000000     0.196667   
H7       H      0.165050000000     0.853710000000     0.451590000000     0.147232   
H8       H      0.069560000000     0.753410000000     0.531690000000     0.21931    
H9       H      0.858090000000     0.775680000000     0.482270000000     0.130757   
H10      H      0.761120000000     0.867110000000     0.491310000000     0.200398   
H11      H      0.788240000000     0.092180000000     0.440460000000     0.14884    
H12      H      0.864790000000     0.182300000000     0.491960000000     0.20313    
H13      H      0.080510000000     0.758790000000     0.453660000000     0.221636   
H14      H      0.714690000000     0.931130000000     0.486010000000     0.234699   
H15      H      0.922790000000     0.233930000000     0.481340000000     0.213008   
H16      H      0.238350000000     0.022950000000     0.471540000000     0.232578   
H17      H      0.873090000000     0.566210000000     0.065870000000     0.214118   
H18      H      0.896860000000     0.385600000000     0.871460000000     0.206277   
H19      H      0.088100000000     0.568220000000     0.894730000000     0.210706   
H20      H      0.066760000000     0.382480000000     0.087750000000     0.210471   
H21      H      0.794330000000     0.473320000000     0.843840000000     0.128588   
H22      H      0.892820000000     0.474120000000     0.753950000000     0.193139   
H23      H      0.114490000000     0.443040000000     0.799330000000     0.149842   
H24      H      0.207090000000     0.519630000000     0.901210000000     0.204337   
H25      H      0.170600000000     0.469450000000     0.114710000000     0.130341   
H26      H      0.068970000000     0.468840000000     0.206500000000     0.197382   
H27      H      0.850340000000     0.435460000000     0.162080000000     0.164342   
H28      H      0.749880000000     0.515590000000     0.055510000000     0.204396   
H29      H      0.203170000000     0.441350000000     0.894850000000     0.205301   
H30      H      0.001240000000     0.477320000000     0.246580000000     0.234159   
H31      H      0.761580000000     0.438130000000     0.065700000000     0.209075   
H32      H      0.959870000000     0.485200000000     0.713530000000     0.213483   
H33      H      0.386710000000     0.079880000000     0.071560000000     0.209013   
H34      H      0.572850000000     0.884250000000     0.082340000000     0.205972   
H35      H      0.391300000000     0.880480000000     0.887190000000     0.207632   
H36      H      0.573370000000     0.074370000000     0.878090000000     0.204823   
H37      H      0.481670000000     0.867470000000     0.182790000000     0.131002   
H38      H      0.456930000000     0.767120000000     0.102700000000     0.212236   
H39      H      0.487400000000     0.783640000000     0.872890000000     0.139043   
H40      H      0.436790000000     0.878270000000     0.761590000000     0.206322   
H41      H      0.485880000000     0.088830000000     0.772950000000     0.129003   
H42      H      0.488400000000     0.190870000000     0.855090000000     0.189466   
H43      H      0.508090000000     0.178790000000     0.081990000000     0.151633   
H44      H      0.453940000000     0.107000000000     0.171400000000     0.203292   
H45      H      0.512870000000     0.863370000000     0.774490000000     0.207815   
H46      H      0.476910000000     0.240510000000     0.914880000000     0.205958   
H47      H      0.483990000000     0.059570000000     0.227140000000     0.239113   
H48      H      0.518970000000     0.735790000000     0.064740000000     0.212728   
H49      H      0.766370000000     0.799630000000     0.890420000000     0.0866106  
H50      H      0.684540000000     0.711280000000     0.883810000000     0.0494801  
H51      H      0.704900000000     0.624900000000     0.957260000000     0.0480617  
H52      H      0.763720000000     0.850850000000     0.956870000000     0.090267   
H53      H      0.793990000000     0.766750000000     0.028280000000    -0.00481681 
H54      H      0.623830000000     0.706680000000     0.943090000000     0.0506722  
H55      H      0.700060000000     0.676600000000     0.023240000000     0.0373027  
H56      H      0.762480000000     0.169600000000     0.045870000000     0.090026   
H57      H      0.677270000000     0.263870000000     0.033120000000     0.0480508  
H58      H      0.706460000000     0.334950000000     0.946340000000     0.047362   
H59      H      0.762680000000     0.110180000000     0.986780000000     0.0930064  
H60      H      0.797040000000     0.183680000000     0.905950000000    -0.00267898 
H61      H      0.623700000000     0.258210000000     0.968890000000     0.0454688  
H62      H      0.708910000000     0.271160000000     0.891950000000     0.039234   
H63      H      0.248730000000     0.688210000000     0.078940000000     0.0881304  
H64      H      0.159250000000     0.772490000000     0.062560000000     0.0513274  
H65      H      0.193670000000     0.845950000000     0.982130000000     0.0532271  
H66      H      0.252880000000     0.622650000000     0.026590000000     0.0945561  
H67      H      0.281700000000     0.692090000000     0.938010000000    -0.00542303 
H68      H      0.109630000000     0.764530000000     0.995650000000     0.0550177  
H69      H      0.194900000000     0.786680000000     0.922930000000     0.0405427  
H70      H      0.180420000000     0.176970000000     0.911150000000     0.0877884  
H71      H      0.263370000000     0.266480000000     0.908910000000     0.0432354  
H72      H      0.256870000000     0.331590000000     0.004380000000     0.0490726  
H73      H      0.192530000000     0.110950000000     0.963390000000     0.096077   
H74      H      0.180720000000     0.178570000000     0.055310000000    -0.0040974  
H75      H      0.331990000000     0.257450000000     0.956550000000     0.0470369  
H76      H      0.266330000000     0.262690000000     0.053290000000     0.0427432  
H77      H      0.693050000000     0.905880000000     0.698590000000     0.0859704  
H78      H      0.775270000000     0.905040000000     0.789430000000     0.0498995  
H79      H      0.846740000000     0.991000000000     0.768270000000     0.0646503  
H80      H      0.625230000000     0.956520000000     0.705520000000     0.0970446  
H81      H      0.693900000000     0.050080000000     0.698050000000    -0.00306669 
H82      H      0.765750000000     0.961860000000     0.850660000000     0.0571514  
H83      H      0.785020000000     0.048500000000     0.777380000000     0.0493759  
H84      H      0.274530000000     0.048330000000     0.699050000000     0.0909426  
H85      H      0.188120000000     0.045890000000     0.791540000000     0.0574206  
H86      H      0.111460000000     0.968250000000     0.764710000000     0.065264   
H87      H      0.336090000000     0.989870000000     0.701870000000     0.0951962  
H88      H      0.260860000000     0.905880000000     0.683940000000    -0.00590051 
H89      H      0.193320000000     0.982080000000     0.847370000000     0.0561978  
H90      H      0.168280000000     0.905450000000     0.768740000000     0.0404008  
H91      H      0.180570000000     0.045080000000     0.172430000000     0.0904318  
H92      H      0.263800000000     0.041600000000     0.264320000000     0.0462894  
H93      H      0.251360000000     0.947490000000     0.332620000000     0.0497669  
H94      H      0.190510000000     0.989520000000     0.110030000000     0.0963727  
H95      H      0.171320000000     0.901430000000     0.181800000000    -0.00376204 
H96      H      0.329080000000     0.987780000000     0.257130000000     0.0545779  
H97      H      0.257730000000     0.897470000000     0.265470000000     0.0459004  
H98      H      0.693810000000     0.918330000000     0.282240000000     0.0855358  
H99      H      0.786820000000     0.912890000000     0.194120000000     0.0478023  
H100     H      0.761370000000     0.989610000000     0.112980000000     0.0519169  
H101     H      0.698870000000     0.979380000000     0.339520000000     0.0939001  
H102     H      0.683390000000     0.060600000000     0.258090000000    -0.00312252 
H103     H      0.843460000000     0.974540000000     0.195810000000     0.0584013  
H104     H      0.766210000000     0.053590000000     0.166760000000     0.0445217  
H105     H      0.066440000000     0.186460000000     0.792550000000     0.0920572  
H106     H      0.073110000000     0.271590000000     0.701690000000     0.0464887  
H107     H      0.994270000000     0.254520000000     0.621910000000     0.0466591  
H108     H      0.003130000000     0.193050000000     0.848590000000     0.114825   
H109     H      0.925880000000     0.170060000000     0.769640000000     0.000466482
H110     H      0.016030000000     0.334440000000     0.701720000000     0.0474195  
H111     H      0.931780000000     0.261690000000     0.678800000000     0.0397097  
H112     H      0.045740000000     0.693070000000     0.691540000000     0.0795448  
H113     H      0.052290000000     0.775800000000     0.782800000000     0.0435879  
H114     H      0.963450000000     0.847550000000     0.770380000000     0.0578211  
H115     H      0.997580000000     0.625180000000     0.704130000000     0.0918913  
H116     H      0.902600000000     0.694730000000     0.708100000000     0.00227648 
H117     H      0.000720000000     0.766070000000     0.849520000000     0.0654005  
H118     H      0.908700000000     0.785580000000     0.785310000000     0.0566141  
H119     H      0.890560000000     0.684260000000     0.257970000000     0.0875113  
H120     H      0.902880000000     0.770950000000     0.168940000000     0.0505772  
H121     H      0.986220000000     0.840970000000     0.198410000000     0.0697586  
H122     H      0.943270000000     0.617800000000     0.256890000000     0.0959506  
H123     H      0.032360000000     0.685530000000     0.280440000000    -0.000408803
H124     H      0.967250000000     0.762340000000     0.114190000000     0.0642208  
H125     H      0.043530000000     0.778640000000     0.195890000000     0.053805   
H126     H      0.871350000000     0.238690000000     0.268780000000     0.0876786  
H127     H      0.889700000000     0.154230000000     0.185870000000     0.0532815  
H128     H      0.967730000000     0.190210000000     0.111060000000     0.0852807  
H129     H      0.922770000000     0.242660000000     0.334710000000     0.0913469  
H130     H      0.009430000000     0.277210000000     0.266160000000    -0.00213513 
H131     H      0.957620000000     0.103550000000     0.191770000000     0.0670256  
H132     H      0.027950000000     0.189420000000     0.169130000000     0.0600909  
N1       N      0.781780000000     0.689990000000     0.967150000000    -0.189976   
N2       N      0.688640000000     0.783790000000     0.950790000000    -0.152837   
N3       N      0.783540000000     0.267890000000     0.956810000000    -0.188896   
N4       N      0.687430000000     0.179260000000     0.982400000000    -0.150536   
N5       N      0.270400000000     0.778390000000     0.986260000000    -0.188457   
N6       N      0.175740000000     0.688390000000     0.012630000000    -0.150173   
N7       N      0.179470000000     0.265670000000     0.005580000000    -0.190153   
N8       N      0.267260000000     0.179210000000     0.958210000000    -0.151893   
N9       N      0.778840000000     0.996980000000     0.693070000000    -0.192433   
N10      N      0.690500000000     0.957500000000     0.783270000000    -0.151359   
N11      N      0.178900000000     0.963470000000     0.687740000000    -0.188054   
N12      N      0.269840000000     0.989590000000     0.780010000000    -0.149869   
N13      N      0.173930000000     0.952370000000     0.266790000000    -0.191461   
N14      N      0.264810000000     0.991820000000     0.178570000000    -0.150868   
N15      N      0.684810000000     0.998850000000     0.180480000000    -0.19234    
N16      N      0.776420000000     0.971940000000     0.272970000000    -0.149547   
N17      N      0.984590000000     0.177150000000     0.688690000000    -0.18809    
N18      N      0.011590000000     0.269040000000     0.780560000000    -0.148493   
N19      N      0.953730000000     0.779250000000     0.696130000000    -0.190957   
N20      N      0.002050000000     0.690650000000     0.781770000000    -0.149828   
N21      N      0.982080000000     0.772160000000     0.274740000000    -0.187908   
N22      N      0.953210000000     0.685240000000     0.179990000000    -0.149501   
N23      N      0.963190000000     0.265060000000     0.179320000000    -0.186814   
N24      N      0.942080000000     0.168240000000     0.268200000000    -0.151102   
O1       O      0.802030000000     0.976760000000     0.377120000000    -0.359662   
O2       O      0.879700000000     0.973150000000     0.302170000000    -0.344025   
O3       O      0.985900000000     0.151250000000     0.583790000000    -0.358809   
O4       O      0.980900000000     0.073670000000     0.658750000000    -0.30607    
O5       O      0.961170000000     0.145250000000     0.371490000000    -0.349727   
O6       O      0.967000000000     0.067570000000     0.298400000000    -0.343315   
O7       O      0.804390000000     0.985310000000     0.589140000000    -0.314267   
O8       O      0.881900000000     0.986980000000     0.661940000000    -0.343813   
O9       O      0.777370000000     0.069480000000     0.480060000000    -0.314802   
O10      O      0.756190000000     0.912290000000     0.487690000000    -0.510925   
O11      O      0.908800000000     0.190930000000     0.485200000000    -0.509849   
O12      O      0.062250000000     0.186820000000     0.465030000000    -0.338245   
O13      O      0.908390000000     0.048080000000     0.417790000000    -0.468652   
O14      O      0.909230000000     0.049560000000     0.542110000000    -0.614449   
O15      O      0.960570000000     0.803560000000     0.591260000000    -0.318825   
O16      O      0.968940000000     0.881310000000     0.663420000000    -0.35205    
O17      O      0.149550000000     0.961330000000     0.371410000000    -0.366135   
O18      O      0.071490000000     0.965490000000     0.299130000000    -0.311067   
O19      O      0.152100000000     0.969780000000     0.583670000000    -0.310165   
O20      O      0.075110000000     0.969800000000     0.659150000000    -0.341838   
O21      O      0.975620000000     0.798910000000     0.379050000000    -0.315395   
O22      O      0.978790000000     0.875850000000     0.303430000000    -0.342352   
O23      O      0.057680000000     0.770960000000     0.491290000000    -0.507941   
O24      O      0.900560000000     0.756210000000     0.483130000000    -0.268943   
O25      O      0.180730000000     0.883990000000     0.482560000000    -0.31217    
O26      O      0.196350000000     0.040720000000     0.472120000000    -0.510905   
O27      O      0.046120000000     0.902330000000     0.543870000000    -0.614981   
O28      O      0.045680000000     0.900490000000     0.418790000000    -0.471809   
O29      O      0.903230000000     0.906710000000     0.551450000000    -0.475088   
O30      O      0.050720000000     0.043820000000     0.409860000000    -0.621939   
O31      O      0.902920000000     0.904460000000     0.416920000000    -0.630822   
O32      O      0.052210000000     0.045590000000     0.545800000000    -0.475279   
O33      O      0.963890000000     0.369700000000     0.153340000000    -0.326032   
O34      O      0.970470000000     0.296680000000     0.075820000000    -0.330953   
O35      O      0.807700000000     0.585350000000     0.961050000000    -0.364158   
O36      O      0.884510000000     0.657780000000     0.973210000000    -0.313639   
O37      O      0.808140000000     0.372610000000     0.959010000000    -0.363878   
O38      O      0.885790000000     0.298570000000     0.969960000000    -0.304062   
O39      O      0.961030000000     0.581280000000     0.154590000000    -0.352011   
O40      O      0.967180000000     0.656340000000     0.076950000000    -0.337514   
O41      O      0.869580000000     0.476720000000     0.170140000000    -0.324698   
O42      O      0.023800000000     0.473690000000     0.206990000000    -0.508761   
O43      O      0.771700000000     0.477120000000     0.044150000000    -0.512296   
O44      O      0.771310000000     0.480860000000     0.883900000000    -0.325196   
O45      O      0.902370000000     0.414080000000     0.042790000000    -0.468918   
O46      O      0.902040000000     0.539630000000     0.042600000000    -0.613543   
O47      O      0.152310000000     0.583570000000     0.007220000000    -0.352981   
O48      O      0.075060000000     0.657770000000     0.993270000000    -0.346605   
O49      O      0.003750000000     0.373680000000     0.805000000000    -0.359499   
O50      O      0.996910000000     0.299190000000     0.883210000000    -0.332267   
O51      O      0.997270000000     0.586230000000     0.807040000000    -0.35315    
O52      O      0.993350000000     0.659190000000     0.885010000000    -0.341073   
O53      O      0.154110000000     0.370430000000     0.001630000000    -0.362477   
O54      O      0.077430000000     0.297500000000     0.991260000000    -0.306734   
O55      O      0.189240000000     0.479950000000     0.914500000000    -0.514887   
O56      O      0.192990000000     0.473610000000     0.073740000000    -0.320551   
O57      O      0.092060000000     0.482850000000     0.788870000000    -0.335079   
O58      O      0.937780000000     0.479670000000     0.753210000000    -0.514416   
O59      O      0.059500000000     0.540870000000     0.917350000000    -0.611393   
O60      O      0.060650000000     0.415080000000     0.917110000000    -0.470065   
O61      O      0.043740000000     0.543950000000     0.060370000000    -0.474798   
O62      O      0.918890000000     0.412200000000     0.900140000000    -0.628001   
O63      O      0.044030000000     0.409770000000     0.059040000000    -0.625327   
O64      O      0.917850000000     0.546950000000     0.900290000000    -0.471934   
O65      O      0.583140000000     0.155020000000     0.975670000000    -0.361114   
O66      O      0.656830000000     0.076230000000     0.980570000000    -0.348153   
O67      O      0.369290000000     0.984890000000     0.154110000000    -0.354779   
O68      O      0.297110000000     0.986540000000     0.075570000000    -0.349822   
O69      O      0.581070000000     0.990740000000     0.154630000000    -0.315343   
O70      O      0.656180000000     0.985960000000     0.077520000000    -0.353601   
O71      O      0.371490000000     0.154220000000     0.963160000000    -0.355252   
O72      O      0.298540000000     0.076610000000     0.971630000000    -0.347047   
O73      O      0.469030000000     0.184960000000     0.057780000000    -0.342797   
O74      O      0.481690000000     0.198070000000     0.899520000000    -0.513572   
O75      O      0.470600000000     0.066390000000     0.184260000000    -0.509763   
O76      O      0.477710000000     0.909960000000     0.201190000000    -0.310485   
O77      O      0.538740000000     0.053040000000     0.048660000000    -0.465925   
O78      O      0.414360000000     0.052820000000     0.047310000000    -0.608663   
O79      O      0.374040000000     0.985350000000     0.805220000000    -0.355578   
O80      O      0.299420000000     0.980390000000     0.883180000000    -0.34773    
O81      O      0.585110000000     0.807530000000     0.968470000000    -0.359849   
O82      O      0.658440000000     0.884460000000     0.973910000000    -0.351688   
O83      O      0.374070000000     0.805390000000     0.988980000000    -0.313072   
O84      O      0.299270000000     0.882640000000     0.982050000000    -0.35192    
O85      O      0.586450000000     0.967770000000     0.807860000000    -0.358219   
O86      O      0.659220000000     0.971500000000     0.885580000000    -0.348861   
O87      O      0.475670000000     0.888960000000     0.781570000000    -0.517287   
O88      O      0.485760000000     0.045460000000     0.756420000000    -0.317572   
O89      O      0.474190000000     0.764460000000     0.913590000000    -0.303743   
O90      O      0.486580000000     0.767920000000     0.067870000000    -0.514046   
O91      O      0.417610000000     0.906820000000     0.912230000000    -0.613842   
O92      O      0.541630000000     0.907280000000     0.913010000000    -0.466835   
O93      O      0.411280000000     0.050370000000     0.904730000000    -0.472523   
O94      O      0.545260000000     0.909340000000     0.056050000000    -0.623846   
O95      O      0.545740000000     0.049760000000     0.904840000000    -0.622844   
O96      O      0.409700000000     0.909560000000     0.055850000000    -0.475485   
Zr1      Zr     0.847500000000     0.978000000000     0.482650000000     1.31055    
Zr2      Zr     0.983700000000     0.105270000000     0.477700000000     1.29211    
Zr3      Zr     0.971350000000     0.845170000000     0.484300000000     1.31786    
Zr4      Zr     0.106970000000     0.972480000000     0.478330000000     1.30544    
Zr5      Zr     0.976250000000     0.973130000000     0.362280000000     1.27539    
Zr6      Zr     0.977840000000     0.976710000000     0.599540000000     1.26987    
Zr7      Zr     0.967390000000     0.476100000000     0.109380000000     1.31198    
Zr8      Zr     0.852470000000     0.478580000000     0.963520000000     1.29573    
Zr9      Zr     0.109750000000     0.477220000000     0.996310000000     1.2929     
Zr10     Zr     0.994830000000     0.479320000000     0.850430000000     1.2936     
Zr11     Zr     0.981700000000     0.358990000000     0.979650000000     1.28258    
Zr12     Zr     0.980580000000     0.596400000000     0.980520000000     1.27071    
Zr13     Zr     0.477420000000     0.110060000000     0.972100000000     1.29234    
Zr14     Zr     0.476030000000     0.981140000000     0.110480000000     1.30513    
Zr15     Zr     0.479660000000     0.978460000000     0.850060000000     1.2966     
Zr16     Zr     0.479330000000     0.849850000000     0.988650000000     1.30256    
Zr17     Zr     0.596250000000     0.980010000000     0.980870000000     1.26468    
Zr18     Zr     0.359740000000     0.979870000000     0.979610000000     1.2599     


