data_structure

_audit_creation_method RASPA-1.0
_audit_creation_date 2023-6-5
_audit_author_name 'Poobodin Mano'

_cell_length_a    21.4299
_cell_length_b    21.4498
_cell_length_c    21.4584
_cell_angle_alpha 89.2564
_cell_angle_beta  89.2563
_cell_angle_gamma 89.2563
_cell_volume      9861.25

_symmetry_cell_setting          triclinic
_symmetry_space_group_name_Hall 'P 1'
_symmetry_space_group_name_H-M  'P 1'
_symmetry_Int_Tables_number     1

_symmetry_equiv_pos_as_xyz 'x,y,z'

loop_
_atom_site_label
_atom_site_type_symbol
_atom_site_fract_x
_atom_site_fract_y
_atom_site_fract_z
_atom_site_charge
C1       C      0.816950000000     0.969650000000     0.317210000000     0.376637   
C2       C      0.976540000000     0.123690000000     0.640280000000     0.377555   
C3       C      0.969500000000     0.121600000000     0.315390000000     0.383016   
C4       C      0.820840000000     0.962710000000     0.643690000000     0.389516   
C5       C      0.969760000000     0.815980000000     0.642120000000     0.385745   
C6       C      0.124380000000     0.957710000000     0.314450000000     0.389261   
C7       C      0.127340000000     0.973240000000     0.639690000000     0.376006   
C8       C      0.974190000000     0.812760000000     0.317950000000     0.372288   
C9       C      0.969790000000     0.303790000000     0.129690000000     0.389461   
C10      C      0.818500000000     0.632110000000     0.979680000000     0.384592   
C11      C      0.817250000000     0.307140000000     0.984940000000     0.37337    
C12      C      0.976770000000     0.630550000000     0.133230000000     0.379222   
C13      C      0.127310000000     0.630040000000     0.978830000000     0.37299    
C14      C      0.971960000000     0.308870000000     0.821900000000     0.373281   
C15      C      0.965330000000     0.634310000000     0.827770000000     0.392776   
C16      C      0.123520000000     0.305110000000     0.967060000000     0.386345   
C17      C      0.632540000000     0.125650000000     0.986930000000     0.379206   
C18      C      0.306270000000     0.961550000000     0.129670000000     0.383688   
C19      C      0.631300000000     0.970160000000     0.135600000000     0.371312   
C20      C      0.308100000000     0.123630000000     0.964640000000     0.391748   
C21      C      0.311890000000     0.977080000000     0.821530000000     0.378566   
C22      C      0.636270000000     0.818250000000     0.980310000000     0.387707   
C23      C      0.308880000000     0.815870000000     0.980810000000     0.377712   
C24      C      0.636400000000     0.968540000000     0.826870000000     0.383681   
C25      C      0.712670000000     0.665540000000     0.975980000000     0.0222787  
C26      C      0.791700000000     0.740120000000     0.983350000000    -0.00684602 
C27      C      0.667830000000     0.712610000000     0.976290000000     0.0267944  
C28      C      0.746770000000     0.788480000000     0.984350000000     0.107894   
C29      C      0.771120000000     0.854150000000     0.991170000000    -0.200954   
C30      C      0.786590000000     0.199960000000     0.979840000000     0.0217105  
C31      C      0.711430000000     0.277700000000     0.001100000000    -0.00663218 
C32      C      0.739610000000     0.154890000000     0.980850000000     0.0261963  
C33      C      0.664290000000     0.232700000000     0.005060000000     0.107398   
C34      C      0.600680000000     0.255290000000     0.027660000000    -0.193342   
C35      C      0.233660000000     0.662620000000     0.980320000000     0.0219002  
C36      C      0.153650000000     0.738320000000     0.980180000000    -0.00721659 
C37      C      0.278300000000     0.709590000000     0.981070000000     0.0271921  
C38      C      0.198200000000     0.786470000000     0.981650000000     0.108126   
C39      C      0.172600000000     0.852640000000     0.984580000000    -0.202219   
C40      C      0.154240000000     0.198130000000     0.973530000000     0.0248363  
C41      C      0.227250000000     0.274260000000     0.943260000000    -0.00665899 
C42      C      0.201310000000     0.152760000000     0.972360000000     0.0282664  
C43      C      0.274120000000     0.228720000000     0.938610000000     0.111859   
C44      C      0.335650000000     0.249040000000     0.909760000000    -0.197976   
C45      C      0.668950000000     0.972040000000     0.720970000000     0.0218195  
C46      C      0.743860000000     0.956220000000     0.799070000000    -0.00668091 
C47      C      0.715440000000     0.969770000000     0.675670000000     0.0289826  
C48      C      0.791310000000     0.951490000000     0.753410000000     0.110581   
C49      C      0.855670000000     0.932390000000     0.775580000000    -0.201239   
C50      C      0.158380000000     0.967680000000     0.746850000000     0.0218462  
C51      C      0.233040000000     0.987910000000     0.668410000000    -0.00526535 
C52      C      0.205320000000     0.969070000000     0.791850000000     0.0262019  
C53      C      0.280260000000     0.991750000000     0.713130000000     0.103244   
C54      C      0.343860000000     0.011830000000     0.689020000000    -0.192622   
C55      C      0.198960000000     0.967910000000     0.160580000000     0.0222793  
C56      C      0.275260000000     0.937890000000     0.233440000000    -0.00970382 
C57      C      0.153480000000     0.966140000000     0.207680000000     0.0279659  
C58      C      0.229760000000     0.933080000000     0.280380000000     0.110228   
C59      C      0.250150000000     0.904300000000     0.341900000000    -0.197846   
C60      C      0.663550000000     0.969350000000     0.242020000000     0.0209215  
C61      C      0.739440000000     0.971350000000     0.162240000000    -0.00806604 
C62      C      0.710560000000     0.969340000000     0.286660000000     0.0252593  
C63      C      0.787600000000     0.971240000000     0.206720000000     0.107648   
C64      C      0.853910000000     0.972280000000     0.181130000000    -0.201812   
C65      C      0.968710000000     0.276610000000     0.715690000000     0.0225992  
C66      C      0.982220000000     0.201170000000     0.794750000000    -0.00673079 
C67      C      0.970320000000     0.229790000000     0.670930000000     0.0258087  
C68      C      0.985660000000     0.153430000000     0.749890000000     0.108041   
C69      C      0.000730000000     0.088250000000     0.773820000000    -0.197841   
C70      C      0.962540000000     0.710620000000     0.675400000000     0.0225265  
C71      C      0.970430000000     0.789390000000     0.750130000000    -0.00851189 
C72      C      0.960950000000     0.665960000000     0.722390000000     0.0294955  
C73      C      0.967600000000     0.744760000000     0.798530000000     0.110091   
C74      C      0.968040000000     0.769340000000     0.864550000000    -0.201849   
C75      C      0.975780000000     0.706320000000     0.285990000000     0.0214094  
C76      C      0.976550000000     0.785920000000     0.209920000000    -0.00749802 
C77      C      0.976720000000     0.661470000000     0.239280000000     0.0273825  
C78      C      0.977960000000     0.741160000000     0.162020000000     0.108753   
C79      C      0.981010000000     0.766400000000     0.095680000000    -0.201753   
C80      C      0.970720000000     0.227430000000     0.282290000000     0.0217218  
C81      C      0.964790000000     0.148520000000     0.207510000000    -0.00747778 
C82      C      0.970660000000     0.272250000000     0.235330000000     0.0270727  
C83      C      0.963710000000     0.193480000000     0.159250000000     0.110121   
C84      C      0.957240000000     0.169310000000     0.093520000000    -0.203493   
H1       H      0.875860000000     0.064350000000     0.568110000000     0.209971   
H2       H      0.068270000000     0.064450000000     0.382770000000     0.202449   
H3       H      0.069600000000     0.872600000000     0.567040000000     0.207193   
H4       H      0.875650000000     0.871460000000     0.388050000000     0.205052   
H5       H      0.082740000000     0.170840000000     0.466850000000     0.125917   
H6       H      0.181980000000     0.083180000000     0.456700000000     0.184132   
H7       H      0.158620000000     0.850920000000     0.462640000000     0.141116   
H8       H      0.076240000000     0.754450000000     0.521580000000     0.197422   
H9       H      0.860810000000     0.767740000000     0.479650000000     0.126283   
H10      H      0.758930000000     0.855850000000     0.476970000000     0.186442   
H11      H      0.777630000000     0.077710000000     0.443180000000     0.148241   
H12      H      0.869240000000     0.183910000000     0.519600000000     0.199238   
H13      H      0.079220000000     0.755460000000     0.443640000000     0.201564   
H14      H      0.712030000000     0.918390000000     0.484630000000     0.202739   
H15      H      0.861490000000     0.176520000000     0.442590000000     0.203368   
H16      H      0.230370000000     0.024570000000     0.476670000000     0.200828   
H17      H      0.878130000000     0.556950000000     0.077940000000     0.209372   
H18      H      0.871980000000     0.378270000000     0.883980000000     0.204533   
H19      H      0.065240000000     0.558370000000     0.879750000000     0.209613   
H20      H      0.070690000000     0.372810000000     0.070690000000     0.20287    
H21      H      0.767190000000     0.469000000000     0.873020000000     0.126115   
H22      H      0.851720000000     0.466720000000     0.770130000000     0.186043   
H23      H      0.078340000000     0.437200000000     0.783820000000     0.148574   
H24      H      0.185120000000     0.512810000000     0.871380000000     0.199254   
H25      H      0.175270000000     0.458740000000     0.084510000000     0.125812   
H26      H      0.092830000000     0.453200000000     0.184860000000     0.18574    
H27      H      0.865010000000     0.435780000000     0.173130000000     0.147417   
H28      H      0.758680000000     0.511840000000     0.086480000000     0.198563   
H29      H      0.181100000000     0.435430000000     0.864240000000     0.201921   
H30      H      0.033780000000     0.465940000000     0.235140000000     0.20446    
H31      H      0.764560000000     0.434220000000     0.093240000000     0.201347   
H32      H      0.911890000000     0.477910000000     0.720880000000     0.203821   
H33      H      0.378950000000     0.065590000000     0.072200000000     0.206675   
H34      H      0.563610000000     0.873110000000     0.077210000000     0.204587   
H35      H      0.385550000000     0.875100000000     0.882430000000     0.210292   
H36      H      0.566120000000     0.068210000000     0.882310000000     0.206136   
H37      H      0.470200000000     0.857460000000     0.182450000000     0.126107   
H38      H      0.475200000000     0.757460000000     0.095230000000     0.185997   
H39      H      0.513050000000     0.778760000000     0.871650000000     0.14822    
H40      H      0.435990000000     0.872790000000     0.761930000000     0.197577   
H41      H      0.470750000000     0.084040000000     0.776020000000     0.124346   
H42      H      0.477240000000     0.180100000000     0.860000000000     0.182079   
H43      H      0.486650000000     0.157460000000     0.092700000000     0.141769   
H44      H      0.420810000000     0.071000000000     0.189620000000     0.197126   
H45      H      0.512570000000     0.862450000000     0.773060000000     0.202871   
H46      H      0.481990000000     0.228480000000     0.920230000000     0.196238   
H47      H      0.498660000000     0.075870000000     0.189680000000     0.200665   
H48      H      0.473720000000     0.710380000000     0.033650000000     0.203573   
H49      H      0.619740000000     0.698010000000     0.972860000000     0.033926   
H50      H      0.696530000000     0.618000000000     0.972680000000     0.0386569  
H51      H      0.840590000000     0.752130000000     0.986390000000     0.0384782  
H52      H      0.750620000000     0.876040000000     0.033470000000     0.0852528  
H53      H      0.822570000000     0.855000000000     0.996880000000     0.0606896  
H54      H      0.760680000000     0.882400000000     0.948790000000     0.0845751  
H55      H      0.753720000000     0.107200000000     0.971310000000     0.0351904  
H56      H      0.834130000000     0.184630000000     0.970310000000     0.0332235  
H57      H      0.698570000000     0.325830000000     0.010360000000     0.0446423  
H58      H      0.582290000000     0.223510000000     0.064540000000     0.0806854  
H59      H      0.602700000000     0.302040000000     0.049210000000     0.0659574  
H60      H      0.568080000000     0.259150000000     0.988030000000     0.0753328  
H61      H      0.326760000000     0.694420000000     0.981020000000     0.0365345  
H62      H      0.250470000000     0.614730000000     0.980020000000     0.0382826  
H63      H      0.104540000000     0.751190000000     0.979880000000     0.0386455  
H64      H      0.185290000000     0.878810000000     0.941360000000     0.0846669  
H65      H      0.120850000000     0.854250000000     0.988510000000     0.063313   
H66      H      0.190260000000     0.876260000000     0.026460000000     0.0901126  
H67      H      0.188500000000     0.105670000000     0.985760000000     0.0356093  
H68      H      0.107550000000     0.183930000000     0.987040000000     0.0331206  
H69      H      0.238680000000     0.321850000000     0.930080000000     0.0432934  
H70      H      0.353160000000     0.213830000000     0.876100000000     0.0804803  
H71      H      0.330680000000     0.293290000000     0.882630000000     0.0643979  
H72      H      0.370150000000     0.256990000000     0.946870000000     0.0815608  
H73      H      0.700790000000     0.976810000000     0.627860000000     0.0356493  
H74      H      0.621520000000     0.979860000000     0.705350000000     0.0394042  
H75      H      0.756140000000     0.949860000000     0.847650000000     0.0415156  
H76      H      0.887420000000     0.972750000000     0.773150000000     0.0797648  
H77      H      0.854940000000     0.915100000000     0.824640000000     0.0630576  
H78      H      0.874220000000     0.893390000000     0.747090000000     0.0894282  
H79      H      0.191230000000     0.960350000000     0.839850000000     0.0330178  
H80      H      0.111050000000     0.958520000000     0.762540000000     0.0325032  
H81      H      0.245700000000     0.996290000000     0.619920000000     0.0424826  
H82      H      0.377460000000     0.972030000000     0.690820000000     0.0813544  
H83      H      0.342650000000     0.028380000000     0.639760000000     0.0663612  
H84      H      0.360550000000     0.051810000000     0.716270000000     0.0861199  
H85      H      0.106200000000     0.979170000000     0.195010000000     0.0345866  
H86      H      0.184650000000     0.981320000000     0.113950000000     0.0334038  
H87      H      0.322920000000     0.925000000000     0.245010000000     0.0487731  
H88      H      0.215180000000     0.870190000000     0.358990000000     0.0823043  
H89      H      0.294790000000     0.877740000000     0.337080000000     0.0690197  
H90      H      0.257350000000     0.941250000000     0.376750000000     0.0813444  
H91      H      0.695360000000     0.968530000000     0.335050000000     0.033722   
H92      H      0.615570000000     0.968590000000     0.258660000000     0.0375712  
H93      H      0.752420000000     0.972220000000     0.113210000000     0.0424307  
H94      H      0.879690000000     0.929460000000     0.195900000000     0.083846   
H95      H      0.855730000000     0.973460000000     0.129350000000     0.0629774  
H96      H      0.877890000000     0.014810000000     0.196680000000     0.0877697  
H97      H      0.964390000000     0.244690000000     0.622870000000     0.0364002  
H98      H      0.962300000000     0.324300000000     0.699400000000     0.035051   
H99      H      0.987700000000     0.188360000000     0.843470000000     0.0457569  
H100     H      0.041050000000     0.068250000000     0.747550000000     0.0903106  
H101     H      0.014330000000     0.087790000000     0.823620000000     0.0668219  
H102     H      0.959230000000     0.058280000000     0.770070000000     0.080211   
H103     H      0.957440000000     0.617980000000     0.707620000000     0.0363264  
H104     H      0.959900000000     0.694520000000     0.627810000000     0.0397525  
H105     H      0.974670000000     0.838090000000     0.762220000000     0.0408548  
H106     H      0.011630000000     0.754520000000     0.888270000000     0.0848012  
H107     H      0.966210000000     0.821110000000     0.865790000000     0.0613237  
H108     H      0.926220000000     0.753130000000     0.890890000000     0.0857255  
H109     H      0.976440000000     0.613130000000     0.254650000000     0.0367129  
H110     H      0.975130000000     0.689790000000     0.333950000000     0.0385571  
H111     H      0.976650000000     0.834940000000     0.196830000000     0.0427342  
H112     H      0.937740000000     0.754860000000     0.070610000000     0.0829155  
H113     H      0.985070000000     0.817990000000     0.093720000000     0.0627803  
H114     H      0.022930000000     0.747510000000     0.071130000000     0.088379   
H115     H      0.973410000000     0.320280000000     0.250120000000     0.0348792  
H116     H      0.973330000000     0.243540000000     0.329870000000     0.0386935  
H117     H      0.962360000000     0.099680000000     0.195390000000     0.0418683  
H118     H      0.000080000000     0.179250000000     0.065680000000     0.0871399  
H119     H      0.950800000000     0.118010000000     0.092600000000     0.0651625  
H120     H      0.915350000000     0.190340000000     0.071240000000     0.0904565  
N1       N      0.774570000000     0.679120000000     0.979530000000    -0.168802   
N2       N      0.683850000000     0.774220000000     0.980330000000    -0.187558   
N3       N      0.772270000000     0.261660000000     0.988360000000    -0.16644    
N4       N      0.677990000000     0.170890000000     0.991300000000    -0.185122   
N5       N      0.171230000000     0.676700000000     0.979660000000    -0.165108   
N6       N      0.261690000000     0.771780000000     0.981270000000    -0.183123   
N7       N      0.167960000000     0.259150000000     0.961490000000    -0.16901    
N8       N      0.261860000000     0.168190000000     0.957970000000    -0.187843   
N9       N      0.683060000000     0.966070000000     0.782690000000    -0.168282   
N10      N      0.776880000000     0.960930000000     0.691100000000    -0.187694   
N11      N      0.172420000000     0.975990000000     0.684940000000    -0.165765   
N12      N      0.266690000000     0.979640000000     0.775640000000    -0.18417    
N13      N      0.260130000000     0.956070000000     0.174130000000    -0.16802    
N14      N      0.169000000000     0.951720000000     0.268150000000    -0.188437   
N15      N      0.677750000000     0.970300000000     0.179710000000    -0.165035   
N16      N      0.772830000000     0.970160000000     0.270100000000    -0.184208   
N17      N      0.974000000000     0.262490000000     0.777760000000    -0.165076   
N18      N      0.977690000000     0.167880000000     0.687120000000    -0.18365    
N19      N      0.967740000000     0.772250000000     0.689080000000    -0.169043   
N20      N      0.964340000000     0.681940000000     0.784030000000    -0.187987   
N21      N      0.975430000000     0.768640000000     0.271570000000    -0.165032   
N22      N      0.977280000000     0.677810000000     0.177070000000    -0.183574   
N23      N      0.968370000000     0.165570000000     0.268530000000    -0.168628   
N24      N      0.967900000000     0.256280000000     0.173640000000    -0.188166   
O1       O      0.797500000000     0.968440000000     0.374940000000    -0.360358   
O2       O      0.875580000000     0.969880000000     0.302340000000    -0.356688   
O3       O      0.977580000000     0.143080000000     0.582580000000    -0.35457    
O4       O      0.973250000000     0.065210000000     0.655370000000    -0.354828   
O5       O      0.971260000000     0.140960000000     0.372260000000    -0.36467    
O6       O      0.969270000000     0.063370000000     0.300440000000    -0.35821    
O7       O      0.801350000000     0.961030000000     0.586700000000    -0.356215   
O8       O      0.878830000000     0.967940000000     0.657730000000    -0.362401   
O9       O      0.772680000000     0.056640000000     0.484240000000    -0.341602   
O10      O      0.753470000000     0.900430000000     0.480780000000    -0.512612   
O11      O      0.883520000000     0.166560000000     0.480520000000    -0.513365   
O12      O      0.040160000000     0.188410000000     0.472810000000    -0.325698   
O13      O      0.901260000000     0.039230000000     0.416520000000    -0.467004   
O14      O      0.901530000000     0.038880000000     0.540930000000    -0.607891   
O15      O      0.967140000000     0.796660000000     0.585320000000    -0.363314   
O16      O      0.973970000000     0.873970000000     0.656920000000    -0.36048    
O17      O      0.142840000000     0.960730000000     0.371410000000    -0.368967   
O18      O      0.066370000000     0.961970000000     0.298840000000    -0.355796   
O19      O      0.145530000000     0.975970000000     0.581780000000    -0.35302    
O20      O      0.069260000000     0.968370000000     0.656560000000    -0.350968   
O21      O      0.973130000000     0.793500000000     0.375560000000    -0.35809    
O22      O      0.973870000000     0.871350000000     0.302020000000    -0.349326   
O23      O      0.059840000000     0.768960000000     0.482160000000    -0.515792   
O24      O      0.903510000000     0.749610000000     0.480910000000    -0.326747   
O25      O      0.177190000000     0.885670000000     0.485600000000    -0.341835   
O26      O      0.188670000000     0.040020000000     0.468540000000    -0.513647   
O27      O      0.043630000000     0.898120000000     0.540190000000    -0.610852   
O28      O      0.043580000000     0.897980000000     0.416490000000    -0.468976   
O29      O      0.901970000000     0.897570000000     0.547140000000    -0.471491   
O30      O      0.042690000000     0.039530000000     0.410600000000    -0.618595   
O31      O      0.901030000000     0.896940000000     0.414230000000    -0.625547   
O32      O      0.044180000000     0.040810000000     0.543840000000    -0.474832   
O33      O      0.972120000000     0.360700000000     0.149230000000    -0.365998   
O34      O      0.969970000000     0.289980000000     0.071490000000    -0.363057   
O35      O      0.799100000000     0.575260000000     0.977660000000    -0.362887   
O36      O      0.876760000000     0.646880000000     0.982090000000    -0.358983   
O37      O      0.798690000000     0.364970000000     0.986050000000    -0.359605   
O38      O      0.875540000000     0.290540000000     0.980570000000    -0.351417   
O39      O      0.979320000000     0.572780000000     0.152660000000    -0.349084   
O40      O      0.972990000000     0.645350000000     0.074890000000    -0.357118   
O41      O      0.892170000000     0.471010000000     0.183670000000    -0.339281   
O42      O      0.048960000000     0.460970000000     0.192870000000    -0.514131   
O43      O      0.775030000000     0.472510000000     0.071540000000    -0.513965   
O44      O      0.750460000000     0.469780000000     0.916240000000    -0.328536   
O45      O      0.903310000000     0.406230000000     0.051090000000    -0.467454   
O46      O      0.903180000000     0.530140000000     0.051490000000    -0.610154   
O47      O      0.146820000000     0.572440000000     0.979330000000    -0.355471   
O48      O      0.068610000000     0.645720000000     0.977740000000    -0.351365   
O49      O      0.968650000000     0.366550000000     0.802840000000    -0.359815   
O50      O      0.973550000000     0.292800000000     0.880360000000    -0.348763   
O51      O      0.961970000000     0.577500000000     0.808190000000    -0.358389   
O52      O      0.970810000000     0.647820000000     0.885660000000    -0.365466   
O53      O      0.142300000000     0.362250000000     0.966630000000    -0.364699   
O54      O      0.065740000000     0.289320000000     0.972680000000    -0.357439   
O55      O      0.169630000000     0.473070000000     0.886080000000    -0.513387   
O56      O      0.192450000000     0.460500000000     0.041480000000    -0.327409   
O57      O      0.053100000000     0.475230000000     0.775110000000    -0.339262   
O58      O      0.895910000000     0.472160000000     0.762850000000    -0.513335   
O59      O      0.040250000000     0.531170000000     0.905890000000    -0.609638   
O60      O      0.040540000000     0.407280000000     0.905110000000    -0.467489   
O61      O      0.045930000000     0.533890000000     0.048420000000    -0.475627   
O62      O      0.898040000000     0.404520000000     0.908690000000    -0.626264   
O63      O      0.044610000000     0.400730000000     0.046380000000    -0.617502   
O64      O      0.898630000000     0.537560000000     0.910130000000    -0.472073   
O65      O      0.574710000000     0.143470000000     0.983800000000    -0.36534    
O66      O      0.649530000000     0.067380000000     0.984500000000    -0.349049   
O67      O      0.363420000000     0.958330000000     0.148380000000    -0.363132   
O68      O      0.290800000000     0.969400000000     0.071940000000    -0.356428   
O69      O      0.573480000000     0.968470000000     0.154570000000    -0.356087   
O70      O      0.647550000000     0.971380000000     0.077160000000    -0.350952   
O71      O      0.365250000000     0.141880000000     0.965530000000    -0.36333    
O72      O      0.292230000000     0.065890000000     0.971390000000    -0.355142   
O73      O      0.458020000000     0.173050000000     0.060030000000    -0.342261   
O74      O      0.477970000000     0.186780000000     0.904420000000    -0.515315   
O75      O      0.461270000000     0.055760000000     0.175920000000    -0.516      
O76      O      0.470580000000     0.900210000000     0.199310000000    -0.328433   
O77      O      0.531580000000     0.041090000000     0.049550000000    -0.471171   
O78      O      0.406950000000     0.040150000000     0.047320000000    -0.606607   
O79      O      0.370010000000     0.978540000000     0.804620000000    -0.36676    
O80      O      0.294490000000     0.972040000000     0.879610000000    -0.348245   
O81      O      0.579090000000     0.798840000000     0.980890000000    -0.366042   
O82      O      0.650300000000     0.876430000000     0.979790000000    -0.362998   
O83      O      0.366620000000     0.796420000000     0.983800000000    -0.348787   
O84      O      0.294120000000     0.874390000000     0.976730000000    -0.355744   
O85      O      0.579520000000     0.971090000000     0.807490000000    -0.364822   
O86      O      0.651340000000     0.968020000000     0.885160000000    -0.356134   
O87      O      0.474260000000     0.885360000000     0.781210000000    -0.514488   
O88      O      0.479500000000     0.041960000000     0.759320000000    -0.33386    
O89      O      0.472950000000     0.771120000000     0.893700000000    -0.341277   
O90      O      0.474030000000     0.751870000000     0.050650000000    -0.513235   
O91      O      0.411530000000     0.900400000000     0.908190000000    -0.611392   
O92      O      0.536250000000     0.900810000000     0.910210000000    -0.466814   
O93      O      0.405420000000     0.042590000000     0.905690000000    -0.476118   
O94      O      0.537040000000     0.898750000000     0.051070000000    -0.62153    
O95      O      0.538820000000     0.042330000000     0.907440000000    -0.623219   
O96      O      0.403640000000     0.898770000000     0.050120000000    -0.472312   
Zr1      Zr     0.843280000000     0.966820000000     0.480200000000     1.29031    
Zr2      Zr     0.973260000000     0.097630000000     0.477700000000     1.29274    
Zr3      Zr     0.971460000000     0.839630000000     0.479910000000     1.29445    
Zr4      Zr     0.101310000000     0.970730000000     0.477150000000     1.29191    
Zr5      Zr     0.971780000000     0.967880000000     0.361440000000     1.26196    
Zr6      Zr     0.973470000000     0.969080000000     0.595810000000     1.25851    
Zr7      Zr     0.977260000000     0.467140000000     0.107400000000     1.29027    
Zr8      Zr     0.842810000000     0.469930000000     0.981010000000     1.29459    
Zr9      Zr     0.100850000000     0.467920000000     0.975830000000     1.29356    
Zr10     Zr     0.966340000000     0.470960000000     0.849460000000     1.29317    
Zr11     Zr     0.971230000000     0.351630000000     0.977040000000     1.26395    
Zr12     Zr     0.972320000000     0.585720000000     0.979600000000     1.26029    
Zr13     Zr     0.470260000000     0.099210000000     0.975380000000     1.29235    
Zr14     Zr     0.469070000000     0.967780000000     0.107350000000     1.29181    
Zr15     Zr     0.474140000000     0.973180000000     0.850210000000     1.29575    
Zr16     Zr     0.472390000000     0.841520000000     0.981880000000     1.29082    
Zr17     Zr     0.589150000000     0.971260000000     0.980400000000     1.26303    
Zr18     Zr     0.353570000000     0.970380000000     0.976840000000     1.25656    


