data_structure

_audit_creation_method RASPA-1.0
_audit_creation_date 2023-6-5
_audit_author_name 'Poobodin Mano'

_cell_length_a    21.4446
_cell_length_b    21.4422
_cell_length_c    21.4391
_cell_angle_alpha 89.2564
_cell_angle_beta  89.2563
_cell_angle_gamma 89.2563
_cell_volume      9855.64

_symmetry_cell_setting          triclinic
_symmetry_space_group_name_Hall 'P 1'
_symmetry_space_group_name_H-M  'P 1'
_symmetry_Int_Tables_number     1

_symmetry_equiv_pos_as_xyz 'x,y,z'

loop_
_atom_site_label
_atom_site_type_symbol
_atom_site_fract_x
_atom_site_fract_y
_atom_site_fract_z
_atom_site_charge
C1       C      0.822110000000     0.977420000000     0.316030000000     0.399313   
C2       C      0.978310000000     0.130920000000     0.640330000000     0.374062   
C3       C      0.972740000000     0.129500000000     0.315310000000     0.384664   
C4       C      0.823140000000     0.972000000000     0.641230000000     0.386997   
C5       C      0.973480000000     0.822650000000     0.641580000000     0.411451   
C6       C      0.130030000000     0.972650000000     0.315230000000     0.385832   
C7       C      0.131330000000     0.978460000000     0.640750000000     0.400652   
C8       C      0.979130000000     0.821460000000     0.315910000000     0.398197   
C9       C      0.972250000000     0.313430000000     0.132500000000     0.410805   
C10      C      0.824240000000     0.640070000000     0.973890000000     0.411209   
C11      C      0.821380000000     0.314530000000     0.979880000000     0.373287   
C12      C      0.978890000000     0.638150000000     0.133100000000     0.375784   
C13      C      0.132070000000     0.637730000000     0.980850000000     0.399833   
C14      C      0.978660000000     0.313350000000     0.824010000000     0.399933   
C15      C      0.973760000000     0.638660000000     0.824500000000     0.387342   
C16      C      0.130030000000     0.312580000000     0.975190000000     0.409771   
C17      C      0.637800000000     0.131890000000     0.978580000000     0.39864    
C18      C      0.314070000000     0.970710000000     0.132410000000     0.411341   
C19      C      0.638660000000     0.976530000000     0.133500000000     0.373169   
C20      C      0.312760000000     0.128420000000     0.973670000000     0.388732   
C21      C      0.314940000000     0.979010000000     0.823350000000     0.375076   
C22      C      0.640530000000     0.823190000000     0.975380000000     0.386189   
C23      C      0.315530000000     0.820210000000     0.982170000000     0.377111   
C24      C      0.640370000000     0.973800000000     0.825250000000     0.410967   
C25      C      0.671800000000     0.716880000000     0.971410000000     0.018378   
C26      C      0.748410000000     0.794680000000     0.973920000000    -0.0739439  
C27      C      0.718020000000     0.671160000000     0.970890000000     0.0432141  
C28      C      0.795130000000     0.748730000000     0.973600000000     0.377191   
C29      C      0.791980000000     0.206600000000     0.980950000000     0.0240551  
C30      C      0.714390000000     0.285030000000     0.979190000000    -0.0787298  
C31      C      0.745550000000     0.160840000000     0.980550000000     0.0475279  
C32      C      0.668060000000     0.239700000000     0.978770000000     0.3674     
C33      C      0.284830000000     0.713410000000     0.985370000000     0.0208146  
C34      C      0.207600000000     0.792040000000     0.979670000000    -0.0715332  
C35      C      0.238700000000     0.667880000000     0.984920000000     0.0410222  
C36      C      0.161080000000     0.746420000000     0.979240000000     0.371301   
C37      C      0.205030000000     0.158160000000     0.975730000000     0.0236519  
C38      C      0.282620000000     0.234900000000     0.968320000000    -0.0785801  
C39      C      0.159090000000     0.204920000000     0.975970000000     0.0482724  
C40      C      0.237240000000     0.281440000000     0.968660000000     0.370494   
C41      C      0.716830000000     0.968810000000     0.672640000000     0.0196921  
C42      C      0.794730000000     0.972780000000     0.749080000000    -0.07521    
C43      C      0.671170000000     0.969450000000     0.718960000000     0.0430164  
C44      C      0.748900000000     0.973220000000     0.795870000000     0.376979   
C45      C      0.284080000000     0.982520000000     0.716580000000     0.0169743  
C46      C      0.206880000000     0.976630000000     0.795230000000    -0.0712606  
C47      C      0.237940000000     0.982280000000     0.671050000000     0.0439998  
C48      C      0.160320000000     0.976420000000     0.749560000000     0.372346   
C49      C      0.159800000000     0.972060000000     0.207560000000     0.0214054  
C50      C      0.236570000000     0.967720000000     0.285290000000    -0.0811886  
C51      C      0.206500000000     0.971620000000     0.161610000000     0.0496055  
C52      C      0.283090000000     0.967010000000     0.239860000000     0.36918    
C53      C      0.669320000000     0.976110000000     0.240280000000     0.0157884  
C54      C      0.746680000000     0.978790000000     0.161590000000    -0.0734492  
C55      C      0.715430000000     0.976460000000     0.285790000000     0.0425249  
C56      C      0.793210000000     0.979110000000     0.207250000000     0.371893   
C57      C      0.980130000000     0.237610000000     0.671110000000     0.0162625  
C58      C      0.978060000000     0.158940000000     0.748510000000    -0.073718   
C59      C      0.980210000000     0.283100000000     0.717260000000     0.0421902  
C60      C      0.978340000000     0.204580000000     0.795090000000     0.372271   
C61      C      0.968940000000     0.670080000000     0.718200000000     0.0207195  
C62      C      0.975110000000     0.746460000000     0.795960000000    -0.0722994  
C63      C      0.968850000000     0.716410000000     0.672530000000     0.0437164  
C64      C      0.975010000000     0.793240000000     0.750110000000     0.380361   
C65      C      0.980670000000     0.668740000000     0.239860000000     0.0201807  
C66      C      0.978650000000     0.746260000000     0.161310000000    -0.0706632  
C67      C      0.980720000000     0.714790000000     0.285450000000     0.041651   
C68      C      0.978880000000     0.792750000000     0.207060000000     0.375088   
C69      C      0.971730000000     0.159230000000     0.207670000000     0.0205881  
C70      C      0.968560000000     0.236080000000     0.285380000000    -0.0830796  
C71      C      0.971520000000     0.205910000000     0.161730000000     0.048301   
C72      C      0.968220000000     0.282590000000     0.239940000000     0.370419   
F1       F      0.855350000000     0.767710000000     0.974390000000    -0.418634   
F2       F      0.607870000000     0.260340000000     0.977830000000    -0.448368   
F3       F      0.100770000000     0.766380000000     0.976180000000    -0.420867   
F4       F      0.257180000000     0.341300000000     0.963890000000    -0.444366   
F5       F      0.768010000000     0.975430000000     0.856000000000    -0.426616   
F6       F      0.100000000000     0.973320000000     0.769460000000    -0.411653   
F7       F      0.342990000000     0.964150000000     0.259910000000    -0.44586    
F8       F      0.853600000000     0.980690000000     0.187330000000    -0.417937   
F9       F      0.977390000000     0.184670000000     0.855530000000    -0.4311     
F10      F      0.977990000000     0.853340000000     0.769170000000    -0.407851   
F11      F      0.977910000000     0.853210000000     0.187250000000    -0.413782   
F12      F      0.965570000000     0.342530000000     0.259910000000    -0.451711   
H1       H      0.879380000000     0.071450000000     0.567360000000     0.213521   
H2       H      0.072570000000     0.072880000000     0.383820000000     0.207115   
H3       H      0.073180000000     0.879860000000     0.567420000000     0.215686   
H4       H      0.880930000000     0.879120000000     0.386490000000     0.211316   
H5       H      0.086990000000     0.177620000000     0.467680000000     0.130029   
H6       H      0.187080000000     0.091160000000     0.468630000000     0.193664   
H7       H      0.170510000000     0.866190000000     0.444420000000     0.153763   
H8       H      0.080570000000     0.761140000000     0.519820000000     0.206194   
H9       H      0.866980000000     0.773650000000     0.476380000000     0.129972   
H10      H      0.764940000000     0.862130000000     0.476040000000     0.191975   
H11      H      0.783450000000     0.085510000000     0.441320000000     0.152848   
H12      H      0.873330000000     0.191170000000     0.520010000000     0.206071   
H13      H      0.087810000000     0.768350000000     0.442280000000     0.20968    
H14      H      0.717350000000     0.924360000000     0.481880000000     0.208967   
H15      H      0.866580000000     0.185230000000     0.442680000000     0.211798   
H16      H      0.235490000000     0.029550000000     0.474730000000     0.214037   
H17      H      0.880280000000     0.565650000000     0.074060000000     0.215035   
H18      H      0.880320000000     0.384450000000     0.882020000000     0.209997   
H19      H      0.073190000000     0.564630000000     0.881550000000     0.215566   
H20      H      0.072670000000     0.381320000000     0.075000000000     0.209751   
H21      H      0.775370000000     0.474540000000     0.867090000000     0.130599   
H22      H      0.864790000000     0.473440000000     0.765430000000     0.192073   
H23      H      0.087550000000     0.438370000000     0.785800000000     0.154229   
H24      H      0.193310000000     0.517080000000     0.877040000000     0.211036   
H25      H      0.177350000000     0.464650000000     0.090240000000     0.130086   
H26      H      0.089730000000     0.463230000000     0.190000000000     0.198305   
H27      H      0.865830000000     0.441800000000     0.171650000000     0.16241    
H28      H      0.760990000000     0.518400000000     0.080310000000     0.207207   
H29      H      0.186330000000     0.439960000000     0.869480000000     0.227832   
H30      H      0.028400000000     0.475910000000     0.237490000000     0.231927   
H31      H      0.768500000000     0.440950000000     0.088120000000     0.212832   
H32      H      0.927520000000     0.478890000000     0.718440000000     0.208648   
H33      H      0.385940000000     0.070700000000     0.073150000000     0.214782   
H34      H      0.570600000000     0.878530000000     0.075790000000     0.208486   
H35      H      0.389840000000     0.879940000000     0.883440000000     0.213288   
H36      H      0.569640000000     0.073260000000     0.880170000000     0.210789   
H37      H      0.480370000000     0.862600000000     0.181530000000     0.129681   
H38      H      0.483520000000     0.764370000000     0.096130000000     0.193577   
H39      H      0.513940000000     0.786110000000     0.869020000000     0.152058   
H40      H      0.439020000000     0.875470000000     0.764240000000     0.204923   
H41      H      0.483170000000     0.089720000000     0.776260000000     0.13104    
H42      H      0.484820000000     0.189160000000     0.862300000000     0.199801   
H43      H      0.508550000000     0.168900000000     0.085340000000     0.161496   
H44      H      0.431850000000     0.075620000000     0.192700000000     0.222632   
H45      H      0.516580000000     0.869480000000     0.769960000000     0.208384   
H46      H      0.469910000000     0.235550000000     0.923070000000     0.235818   
H47      H      0.509030000000     0.083930000000     0.184980000000     0.213167   
H48      H      0.480580000000     0.716550000000     0.035140000000     0.211511   
H49      H      0.702940000000     0.623120000000     0.969670000000     0.0401842  
H50      H      0.623840000000     0.701530000000     0.970430000000     0.0420365  
H51      H      0.762530000000     0.843030000000     0.975070000000     0.124022   
H52      H      0.760610000000     0.112380000000     0.981130000000     0.0641978  
H53      H      0.840280000000     0.191080000000     0.981790000000     0.0679413  
H54      H      0.699150000000     0.333450000000     0.978650000000     0.099886   
H55      H      0.254170000000     0.619570000000     0.987100000000     0.0439349  
H56      H      0.332940000000     0.697480000000     0.987850000000     0.0449049  
H57      H      0.192850000000     0.840570000000     0.977470000000     0.109203   
H58      H      0.110830000000     0.190640000000     0.979210000000     0.0596542  
H59      H      0.190220000000     0.110050000000     0.978680000000     0.0572609  
H60      H      0.330790000000     0.249540000000     0.964870000000     0.100978   
H61      H      0.623100000000     0.967910000000     0.704040000000     0.0381248  
H62      H      0.701430000000     0.966980000000     0.624730000000     0.0427101  
H63      H      0.843090000000     0.974180000000     0.763120000000     0.125647   
H64      H      0.253440000000     0.984630000000     0.622750000000     0.0384908  
H65      H      0.332170000000     0.984970000000     0.700610000000     0.0454551  
H66      H      0.192160000000     0.974290000000     0.843770000000     0.109354   
H67      H      0.192160000000     0.973290000000     0.113300000000     0.0516772  
H68      H      0.111680000000     0.974120000000     0.192680000000     0.0700646  
H69      H      0.251190000000     0.965930000000     0.333530000000     0.0961044  
H70      H      0.699860000000     0.975470000000     0.334110000000     0.0358496  
H71      H      0.621170000000     0.974930000000     0.256260000000     0.0482343  
H72      H      0.761460000000     0.979790000000     0.113030000000     0.112153   
H73      H      0.981070000000     0.331390000000     0.701690000000     0.0352972  
H74      H      0.980860000000     0.253600000000     0.622930000000     0.0455638  
H75      H      0.977210000000     0.110400000000     0.763270000000     0.122544   
H76      H      0.966260000000     0.701490000000     0.624500000000     0.0395118  
H77      H      0.966400000000     0.622180000000     0.702880000000     0.0428279  
H78      H      0.977630000000     0.760490000000     0.844270000000     0.136      
H79      H      0.981590000000     0.699130000000     0.333720000000     0.0401795  
H80      H      0.981450000000     0.620540000000     0.255770000000     0.0456981  
H81      H      0.977800000000     0.761110000000     0.112790000000     0.13163    
H82      H      0.972860000000     0.191530000000     0.113430000000     0.0522479  
H83      H      0.973180000000     0.111090000000     0.192810000000     0.0696296  
H84      H      0.967020000000     0.250730000000     0.333610000000     0.0998158  
N1       N      0.686820000000     0.778650000000     0.973440000000    -0.150326   
N2       N      0.779780000000     0.686660000000     0.972620000000    -0.220532   
N3       N      0.776440000000     0.268870000000     0.980120000000    -0.146689   
N4       N      0.683360000000     0.177090000000     0.979300000000    -0.215067   
N5       N      0.269560000000     0.775650000000     0.982540000000    -0.148281   
N6       N      0.176600000000     0.683890000000     0.981690000000    -0.214877   
N7       N      0.266810000000     0.173350000000     0.972460000000    -0.150565   
N8       N      0.175130000000     0.266640000000     0.973170000000    -0.220008   
N9       N      0.778600000000     0.971030000000     0.687540000000    -0.149286   
N10      N      0.686810000000     0.972090000000     0.780670000000    -0.221413   
N11      N      0.268850000000     0.979510000000     0.778850000000    -0.148144   
N12      N      0.175820000000     0.979070000000     0.687020000000    -0.214098   
N13      N      0.175020000000     0.970710000000     0.269400000000    -0.149795   
N14      N      0.268230000000     0.969580000000     0.177640000000    -0.221478   
N15      N      0.684670000000     0.977150000000     0.178000000000    -0.147619   
N16      N      0.777610000000     0.977780000000     0.269790000000    -0.215846   
N17      N      0.978860000000     0.175360000000     0.686440000000    -0.146193   
N18      N      0.979180000000     0.267110000000     0.779500000000    -0.216961   
N19      N      0.972500000000     0.684950000000     0.779920000000    -0.148118   
N20      N      0.972320000000     0.778070000000     0.688070000000    -0.22003    
N21      N      0.979430000000     0.684190000000     0.177610000000    -0.145097   
N22      N      0.979680000000     0.777030000000     0.269580000000    -0.215157   
N23      N      0.970920000000     0.174490000000     0.269480000000    -0.149333   
N24      N      0.970470000000     0.267660000000     0.177750000000    -0.222199   
O1       O      0.803010000000     0.975950000000     0.373790000000    -0.364689   
O2       O      0.880660000000     0.977960000000     0.300160000000    -0.296944   
O3       O      0.980040000000     0.149970000000     0.582590000000    -0.352668   
O4       O      0.975930000000     0.072430000000     0.656480000000    -0.324628   
O5       O      0.973910000000     0.147860000000     0.372560000000    -0.360433   
O6       O      0.973780000000     0.071560000000     0.299280000000    -0.335892   
O7       O      0.804500000000     0.970050000000     0.584090000000    -0.355321   
O8       O      0.881050000000     0.975440000000     0.656830000000    -0.333125   
O9       O      0.776840000000     0.063470000000     0.481690000000    -0.335629   
O10      O      0.758980000000     0.906740000000     0.479010000000    -0.512906   
O11      O      0.888040000000     0.174460000000     0.480760000000    -0.513858   
O12      O      0.044450000000     0.195370000000     0.473200000000    -0.31838    
O13      O      0.905880000000     0.046890000000     0.415700000000    -0.469468   
O14      O      0.905360000000     0.045930000000     0.540490000000    -0.61359    
O15      O      0.971560000000     0.803970000000     0.584410000000    -0.36548    
O16      O      0.976880000000     0.880590000000     0.656860000000    -0.302678   
O17      O      0.148350000000     0.973760000000     0.372510000000    -0.363132   
O18      O      0.072120000000     0.973780000000     0.299170000000    -0.336381   
O19      O      0.150390000000     0.980580000000     0.582980000000    -0.352663   
O20      O      0.072840000000     0.975640000000     0.656590000000    -0.293125   
O21      O      0.978070000000     0.802300000000     0.373690000000    -0.359941   
O22      O      0.979090000000     0.880040000000     0.300100000000    -0.296815   
O23      O      0.066060000000     0.778410000000     0.480670000000    -0.514737   
O24      O      0.909830000000     0.756180000000     0.479270000000    -0.322067   
O25      O      0.178320000000     0.890200000000     0.482610000000    -0.333535   
O26      O      0.193630000000     0.046640000000     0.472830000000    -0.513806   
O27      O      0.047400000000     0.905560000000     0.540530000000    -0.61455    
O28      O      0.048420000000     0.906070000000     0.415800000000    -0.469098   
O29      O      0.906200000000     0.904680000000     0.546080000000    -0.472534   
O30      O      0.047110000000     0.047260000000     0.411130000000    -0.622129   
O31      O      0.906170000000     0.904570000000     0.412840000000    -0.630764   
O32      O      0.047760000000     0.048070000000     0.544570000000    -0.476458   
O33      O      0.973650000000     0.370720000000     0.150340000000    -0.329565   
O34      O      0.973250000000     0.297210000000     0.074570000000    -0.351971   
O35      O      0.805410000000     0.582940000000     0.972050000000    -0.365207   
O36      O      0.882190000000     0.655180000000     0.977510000000    -0.308215   
O37      O      0.802800000000     0.372430000000     0.978370000000    -0.351973   
O38      O      0.879800000000     0.297900000000     0.980550000000    -0.330486   
O39      O      0.980380000000     0.580420000000     0.152140000000    -0.347149   
O40      O      0.976740000000     0.654310000000     0.074570000000    -0.317171   
O41      O      0.889130000000     0.480540000000     0.178890000000    -0.323776   
O42      O      0.045540000000     0.470740000000     0.195940000000    -0.507629   
O43      O      0.778570000000     0.479250000000     0.066190000000    -0.514353   
O44      O      0.757610000000     0.478020000000     0.909780000000    -0.31855    
O45      O      0.906040000000     0.413820000000     0.049630000000    -0.46942    
O46      O      0.906070000000     0.538650000000     0.048490000000    -0.615903   
O47      O      0.150970000000     0.579920000000     0.983100000000    -0.356906   
O48      O      0.073650000000     0.653730000000     0.977720000000    -0.299996   
O49      O      0.977850000000     0.371110000000     0.804870000000    -0.36476    
O50      O      0.978420000000     0.297510000000     0.882590000000    -0.305746   
O51      O      0.971720000000     0.581490000000     0.805910000000    -0.354311   
O52      O      0.977300000000     0.654320000000     0.882390000000    -0.325809   
O53      O      0.148120000000     0.369800000000     0.976510000000    -0.325154   
O54      O      0.072020000000     0.296610000000     0.976240000000    -0.343952   
O55      O      0.175920000000     0.477960000000     0.891230000000    -0.509176   
O56      O      0.195470000000     0.470170000000     0.047840000000    -0.296651   
O57      O      0.066010000000     0.479030000000     0.779440000000    -0.335576   
O58      O      0.909470000000     0.476250000000     0.759920000000    -0.512705   
O59      O      0.047430000000     0.537900000000     0.907420000000    -0.615347   
O60      O      0.047900000000     0.412960000000     0.908260000000    -0.468625   
O61      O      0.048490000000     0.542130000000     0.049890000000    -0.478314   
O62      O      0.905700000000     0.410690000000     0.907450000000    -0.62955    
O63      O      0.047270000000     0.408630000000     0.049330000000    -0.624281   
O64      O      0.906310000000     0.543950000000     0.907190000000    -0.472591   
O65      O      0.579900000000     0.149990000000     0.976840000000    -0.321325   
O66      O      0.654600000000     0.073470000000     0.979370000000    -0.335019   
O67      O      0.371360000000     0.968820000000     0.150330000000    -0.324566   
O68      O      0.297970000000     0.974210000000     0.074460000000    -0.352095   
O69      O      0.580960000000     0.974550000000     0.152520000000    -0.353714   
O70      O      0.654880000000     0.977650000000     0.074960000000    -0.33461    
O71      O      0.369980000000     0.146910000000     0.971350000000    -0.352854   
O72      O      0.296960000000     0.070460000000     0.977550000000    -0.346654   
O73      O      0.468820000000     0.175150000000     0.062950000000    -0.321312   
O74      O      0.476940000000     0.194350000000     0.906420000000    -0.508159   
O75      O      0.471420000000     0.061870000000     0.175320000000    -0.511096   
O76      O      0.478150000000     0.905220000000     0.198710000000    -0.295528   
O77      O      0.538090000000     0.046700000000     0.048390000000    -0.47293    
O78      O      0.413320000000     0.045190000000     0.047660000000    -0.611084   
O79      O      0.372640000000     0.981540000000     0.804360000000    -0.352797   
O80      O      0.298800000000     0.975620000000     0.881860000000    -0.337487   
O81      O      0.583420000000     0.804340000000     0.976790000000    -0.365148   
O82      O      0.656090000000     0.881260000000     0.976330000000    -0.335039   
O83      O      0.373290000000     0.801390000000     0.984510000000    -0.347456   
O84      O      0.299200000000     0.878650000000     0.979020000000    -0.33821    
O85      O      0.583170000000     0.974970000000     0.806470000000    -0.367905   
O86      O      0.655720000000     0.974620000000     0.883290000000    -0.312105   
O87      O      0.477760000000     0.890340000000     0.780690000000    -0.514902   
O88      O      0.479860000000     0.047430000000     0.758700000000    -0.321714   
O89      O      0.476690000000     0.775530000000     0.894580000000    -0.334712   
O90      O      0.481270000000     0.758260000000     0.051640000000    -0.513812   
O91      O      0.415990000000     0.905510000000     0.908770000000    -0.615551   
O92      O      0.540660000000     0.906390000000     0.909160000000    -0.467133   
O93      O      0.409380000000     0.047670000000     0.906280000000    -0.473373   
O94      O      0.543630000000     0.904240000000     0.050110000000    -0.626711   
O95      O      0.542920000000     0.047460000000     0.906030000000    -0.627329   
O96      O      0.410060000000     0.903990000000     0.051200000000    -0.472876   
Zr1      Zr     0.848040000000     0.974070000000     0.478800000000     1.29845    
Zr2      Zr     0.977220000000     0.104830000000     0.477880000000     1.2989     
Zr3      Zr     0.976330000000     0.847290000000     0.478860000000     1.29873    
Zr4      Zr     0.105470000000     0.978200000000     0.478000000000     1.29888    
Zr5      Zr     0.976720000000     0.976040000000     0.360460000000     1.28571    
Zr6      Zr     0.976810000000     0.976220000000     0.596100000000     1.28339    
Zr7      Zr     0.977980000000     0.475790000000     0.107070000000     1.31088    
Zr8      Zr     0.848180000000     0.477160000000     0.977020000000     1.29994    
Zr9      Zr     0.105530000000     0.475220000000     0.979840000000     1.31175    
Zr10     Zr     0.975860000000     0.476260000000     0.849700000000     1.29846    
Zr11     Zr     0.976330000000     0.357940000000     0.978650000000     1.2767     
Zr12     Zr     0.977410000000     0.593830000000     0.978330000000     1.28388    
Zr13     Zr     0.475440000000     0.104470000000     0.975000000000     1.31119    
Zr14     Zr     0.476310000000     0.973380000000     0.107090000000     1.31096    
Zr15     Zr     0.477500000000     0.978330000000     0.849620000000     1.29893    
Zr16     Zr     0.477920000000     0.847140000000     0.981830000000     1.29906    
Zr17     Zr     0.594770000000     0.976740000000     0.978700000000     1.27861    
Zr18     Zr     0.358800000000     0.975140000000     0.978310000000     1.26509    


