data_structure

_audit_creation_method RASPA-1.0
_audit_creation_date 2023-6-5
_audit_author_name 'Poobodin Mano'

_cell_length_a    21.2677
_cell_length_b    21.2981
_cell_length_c    21.4047
_cell_angle_alpha 89.2564
_cell_angle_beta  89.2563
_cell_angle_gamma 89.2563
_cell_volume      9693.08

_symmetry_cell_setting          triclinic
_symmetry_space_group_name_Hall 'P 1'
_symmetry_space_group_name_H-M  'P 1'
_symmetry_Int_Tables_number     1

_symmetry_equiv_pos_as_xyz 'x,y,z'

loop_
_atom_site_label
_atom_site_type_symbol
_atom_site_fract_x
_atom_site_fract_y
_atom_site_fract_z
_atom_site_charge
Br1      Br     0.673470000000     0.580540000000     0.986950000000    -0.225118   
Br2      Br     0.784220000000     0.073040000000     0.928900000000    -0.197293   
Br3      Br     0.363090000000     0.683270000000     0.945310000000    -0.224914   
Br4      Br     0.279750000000     0.370440000000     0.909130000000    -0.228343   
Br5      Br     0.780490000000     0.903030000000     0.881020000000    -0.198775   
Br6      Br     0.176670000000     0.019210000000     0.875570000000    -0.22831    
Br7      Br     0.076520000000     0.060570000000     0.189370000000    -0.292917   
Br8      Br     0.784760000000     0.980690000000     0.077450000000    -0.197182   
Br9      Br     0.909300000000     0.268010000000     0.587570000000    -0.234529   
Br10     Br     0.955780000000     0.791050000000     0.885720000000    -0.218707   
Br11     Br     0.026160000000     0.667880000000     0.371090000000    -0.226772   
Br12     Br     0.872710000000     0.333500000000     0.231160000000    -0.228225   
C1       C      0.823590000000     0.968110000000     0.318190000000     0.377501   
C2       C      0.969130000000     0.134120000000     0.632210000000     0.381284   
C3       C      0.965730000000     0.118910000000     0.306250000000     0.378187   
C4       C      0.829190000000     0.947510000000     0.642430000000     0.383824   
C5       C      0.996260000000     0.823660000000     0.645870000000     0.376884   
C6       C      0.131670000000     0.988670000000     0.310820000000     0.389413   
C7       C      0.135940000000     0.997600000000     0.635640000000     0.375361   
C8       C      0.999120000000     0.812690000000     0.319710000000     0.381085   
C9       C      0.974960000000     0.307230000000     0.124440000000     0.390389   
C10      C      0.818240000000     0.635160000000     0.979120000000     0.391641   
C11      C      0.829850000000     0.310940000000     0.973000000000     0.378617   
C12      C      0.977620000000     0.633960000000     0.136330000000     0.374761   
C13      C      0.129100000000     0.644440000000     0.986640000000     0.376532   
C14      C      0.974120000000     0.319140000000     0.817320000000     0.370818   
C15      C      0.963060000000     0.647520000000     0.828410000000     0.389666   
C16      C      0.139430000000     0.318180000000     0.950820000000     0.389483   
C17      C      0.647840000000     0.124570000000     0.975860000000     0.386282   
C18      C      0.311730000000     0.999160000000     0.126550000000     0.377735   
C19      C      0.639940000000     0.972280000000     0.133200000000     0.381299   
C20      C      0.320110000000     0.137910000000     0.972130000000     0.37902    
C21      C      0.317710000000     0.984930000000     0.821010000000     0.384416   
C22      C      0.637960000000     0.817860000000     0.997950000000     0.378598   
C23      C      0.311590000000     0.827080000000     0.974730000000     0.382025   
C24      C      0.646100000000     0.954680000000     0.826990000000     0.386999   
C25      C      0.749920000000     0.787970000000     0.016020000000    -0.0120618  
C26      C      0.666720000000     0.707100000000     0.020810000000    -0.0424446  
C27      C      0.788530000000     0.747360000000     0.970920000000    -0.0165808  
C28      C      0.702850000000     0.666840000000     0.973760000000     0.107524   
C29      C      0.719550000000     0.278960000000     0.961500000000    -0.0135995  
C30      C      0.807050000000     0.200040000000     0.950450000000    -0.0425536  
C31      C      0.681080000000     0.231560000000     0.998260000000    -0.0141477  
C32      C      0.763830000000     0.148190000000     0.977460000000     0.105862   
C33      C      0.154740000000     0.757700000000     0.001900000000    -0.012355   
C34      C      0.240060000000     0.675530000000     0.998150000000    -0.0499142  
C35      C      0.197950000000     0.802840000000     0.964190000000    -0.0160989  
C36      C      0.276670000000     0.716140000000     0.951880000000     0.111242   
C37      C      0.207610000000     0.169560000000     0.984900000000    -0.0174662  
C38      C      0.291240000000     0.251210000000     0.971640000000    -0.0486949  
C39      C      0.167110000000     0.205600000000     0.937410000000    -0.0114033  
C40      C      0.251260000000     0.284100000000     0.922030000000     0.112864   
C41      C      0.724250000000     0.910950000000     0.676940000000    -0.0123595  
C42      C      0.808860000000     0.922130000000     0.754020000000    -0.0423045  
C43      C      0.677750000000     0.947050000000     0.717280000000    -0.0106164  
C44      C      0.761430000000     0.947930000000     0.802820000000     0.108412   
C45      C      0.246110000000     0.017470000000     0.666550000000    -0.0114533  
C46      C      0.160150000000     0.019910000000     0.746220000000    -0.0424944  
C47      C      0.287530000000     0.978750000000     0.710660000000    -0.0155027  
C48      C      0.202130000000     0.985220000000     0.793990000000     0.107301   
C49      C      0.278790000000     0.036250000000     0.230750000000    -0.0114828  
C50      C      0.199680000000     0.025250000000     0.147580000000    -0.047425   
C51      C      0.241050000000     0.997720000000     0.276780000000    -0.0122136  
C52      C      0.150280000000     0.003950000000     0.197090000000     0.122084   
C53      C      0.712640000000     0.987390000000     0.288250000000    -0.0168222  
C54      C      0.798060000000     0.987780000000     0.207080000000    -0.0470683  
C55      C      0.669400000000     0.954270000000     0.243040000000    -0.0133846  
C56      C      0.754750000000     0.955250000000     0.161000000000     0.106963   
C57      C      0.960700000000     0.207110000000     0.790590000000    -0.0138615  
C58      C      0.940590000000     0.291340000000     0.711420000000    -0.0442874  
C59      C      0.989540000000     0.164810000000     0.740300000000    -0.0146627  
C60      C      0.964440000000     0.248530000000     0.658440000000     0.107414   
C61      C      0.002850000000     0.712670000000     0.681950000000    -0.0119449  
C62      C      0.002400000000     0.799260000000     0.760100000000    -0.0428319  
C63      C      0.949840000000     0.680940000000     0.718360000000    -0.0129116  
C64      C      0.951950000000     0.764170000000     0.798690000000     0.109377   
C65      C      0.964550000000     0.745570000000     0.168590000000    -0.0183195  
C66      C      0.975620000000     0.659870000000     0.249240000000    -0.0481515  
C67      C      0.008110000000     0.786720000000     0.207060000000    -0.00990692 
C68      C      0.021850000000     0.700150000000     0.285000000000     0.111102   
C69      C      0.979450000000     0.142610000000     0.193420000000    -0.0455553  
C70      C      0.916730000000     0.213760000000     0.263000000000    -0.0452292  
C71      C      0.002210000000     0.199750000000     0.155100000000     0.00303866 
C72      C      0.942560000000     0.272300000000     0.230690000000     0.114197   
H1       H      0.874250000000     0.061630000000     0.564790000000     0.209277   
H2       H      0.066040000000     0.076120000000     0.378580000000     0.212098   
H3       H      0.087130000000     0.888360000000     0.567670000000     0.213253   
H4       H      0.892270000000     0.863230000000     0.388950000000     0.202828   
H5       H      0.070680000000     0.186050000000     0.462090000000     0.1279     
H6       H      0.185100000000     0.104760000000     0.465210000000     0.189659   
H7       H      0.190180000000     0.886380000000     0.433500000000     0.148692   
H8       H      0.116160000000     0.780540000000     0.449570000000     0.215403   
H9       H      0.889460000000     0.759100000000     0.473490000000     0.12715    
H10      H      0.780850000000     0.836640000000     0.472250000000     0.187248   
H11      H      0.775330000000     0.066120000000     0.452470000000     0.150264   
H12      H      0.842440000000     0.159070000000     0.506370000000     0.209712   
H13      H      0.096900000000     0.754760000000     0.521360000000     0.210046   
H14      H      0.726170000000     0.893360000000     0.480110000000     0.204075   
H15      H      0.862420000000     0.190660000000     0.437130000000     0.215469   
H16      H      0.237380000000     0.045430000000     0.469420000000     0.20358    
H17      H      0.882990000000     0.559670000000     0.078550000000     0.205044   
H18      H      0.882620000000     0.386560000000     0.879940000000     0.208857   
H19      H      0.071030000000     0.573700000000     0.880100000000     0.213943   
H20      H      0.083790000000     0.379820000000     0.066180000000     0.201018   
H21      H      0.774620000000     0.476470000000     0.870890000000     0.130012   
H22      H      0.863280000000     0.480920000000     0.762520000000     0.192974   
H23      H      0.078990000000     0.445200000000     0.770130000000     0.151082   
H24      H      0.175430000000     0.470830000000     0.848220000000     0.219465   
H25      H      0.185880000000     0.478310000000     0.082150000000     0.129822   
H26      H      0.103950000000     0.442970000000     0.177800000000     0.189434   
H27      H      0.867450000000     0.475440000000     0.168090000000     0.147534   
H28      H      0.768780000000     0.509700000000     0.089180000000     0.209235   
H29      H      0.213320000000     0.525980000000     0.887330000000     0.219115   
H30      H      0.053980000000     0.478240000000     0.227650000000     0.216152   
H31      H      0.771190000000     0.431170000000     0.088620000000     0.21614    
H32      H      0.926490000000     0.489040000000     0.715810000000     0.208369   
H33      H      0.391940000000     0.081130000000     0.065930000000     0.209039   
H34      H      0.566010000000     0.880280000000     0.081560000000     0.209579   
H35      H      0.389780000000     0.881010000000     0.883950000000     0.212347   
H36      H      0.579050000000     0.066500000000     0.875620000000     0.207638   
H37      H      0.477680000000     0.869510000000     0.182730000000     0.127518   
H38      H      0.450850000000     0.765380000000     0.098920000000     0.196674   
H39      H      0.526250000000     0.776270000000     0.884580000000     0.154269   
H40      H      0.459930000000     0.848270000000     0.790200000000     0.203828   
H41      H      0.482030000000     0.085860000000     0.772020000000     0.131738   
H42      H      0.505950000000     0.183490000000     0.850460000000     0.190828   
H43      H      0.514500000000     0.172760000000     0.077870000000     0.148854   
H44      H      0.453740000000     0.105110000000     0.167930000000     0.195564   
H45      H      0.486470000000     0.894780000000     0.732340000000     0.206458   
H46      H      0.473340000000     0.232610000000     0.902400000000     0.212917   
H47      H      0.506500000000     0.066650000000     0.211860000000     0.20623    
H48      H      0.481400000000     0.718190000000     0.044110000000     0.221477   
H49      H      0.681120000000     0.692540000000     0.068720000000     0.0564382  
H50      H      0.765270000000     0.776560000000     0.064380000000     0.045348   
H51      H      0.839090000000     0.756280000000     0.978970000000     0.0707358  
H52      H      0.615530000000     0.698300000000     0.016960000000     0.0660951  
H53      H      0.686720000000     0.681130000000     0.926370000000     0.0363344  
H54      H      0.760100000000     0.838260000000     0.006970000000     0.0784647  
H55      H      0.778100000000     0.763200000000     0.922440000000     0.0663934  
H56      H      0.807240000000     0.197920000000     0.898530000000     0.061659   
H57      H      0.706400000000     0.276830000000     0.911440000000     0.0460832  
H58      H      0.630650000000     0.244720000000     0.993310000000     0.0497183  
H59      H      0.855950000000     0.189520000000     0.965580000000     0.069207   
H60      H      0.778000000000     0.138290000000     0.026460000000     0.0449905  
H61      H      0.706870000000     0.326540000000     0.978700000000     0.0534008  
H62      H      0.692570000000     0.235730000000     0.048590000000     0.0480157  
H63      H      0.255970000000     0.685920000000     0.046200000000     0.0653008  
H64      H      0.159170000000     0.768760000000     0.052260000000     0.0459995  
H65      H      0.189830000000     0.851240000000     0.981630000000     0.0581119  
H66      H      0.250990000000     0.625290000000     0.989080000000     0.072598   
H67      H      0.256800000000     0.707510000000     0.904940000000     0.0301286  
H68      H      0.105100000000     0.767420000000     0.988900000000     0.0582678  
H69      H      0.183060000000     0.802510000000     0.914590000000     0.049451   
H70      H      0.280740000000     0.273040000000     0.017600000000     0.0640642  
H71      H      0.193160000000     0.184800000000     0.032530000000     0.0450338  
H72      H      0.116810000000     0.196990000000     0.948690000000     0.0547561  
H73      H      0.341760000000     0.258860000000     0.960480000000     0.0693271  
H74      H      0.262810000000     0.260790000000     0.876990000000     0.0321855  
H75      H      0.197700000000     0.118660000000     0.981760000000     0.0654116  
H76      H      0.176880000000     0.185750000000     0.890400000000     0.0534647  
H77      H      0.814770000000     0.870530000000     0.761090000000     0.0660411  
H78      H      0.720730000000     0.860120000000     0.688970000000     0.0438495  
H79      H      0.630410000000     0.927520000000     0.708720000000     0.044848   
H80      H      0.855480000000     0.943220000000     0.762570000000     0.071177   
H81      H      0.772320000000     0.998150000000     0.810080000000     0.0460755  
H82      H      0.710670000000     0.917260000000     0.627270000000     0.0448125  
H83      H      0.676800000000     0.996990000000     0.701420000000     0.0452455  
H84      H      0.164010000000     0.071360000000     0.753520000000     0.0625674  
H85      H      0.256760000000     0.067990000000     0.672740000000     0.044211   
H86      H      0.337230000000     0.990610000000     0.699710000000     0.0477674  
H87      H      0.110360000000     0.007350000000     0.755880000000     0.0697425  
H88      H      0.188750000000     0.934920000000     0.794520000000     0.0307592  
H89      H      0.258770000000     0.004990000000     0.617690000000     0.0451368  
H90      H      0.281630000000     0.928220000000     0.699930000000     0.0418891  
H91      H      0.193840000000     0.076360000000     0.137580000000     0.0639968  
H92      H      0.264470000000     0.086440000000     0.235440000000     0.0406042  
H93      H      0.251120000000     0.015310000000     0.324260000000     0.043736   
H94      H      0.189990000000     0.000900000000     0.103140000000     0.0696368  
H95      H      0.133970000000     0.956490000000     0.184140000000     0.0322996  
H96      H      0.329360000000     0.032110000000     0.242760000000     0.0451325  
H97      H      0.257760000000     0.948060000000     0.275130000000     0.0445804  
H98      H      0.795470000000     0.039380000000     0.198380000000     0.0674004  
H99      H      0.703020000000     0.038770000000     0.284930000000     0.0444047  
H100     H      0.620310000000     0.968950000000     0.254510000000     0.0436066  
H101     H      0.847300000000     0.972260000000     0.197270000000     0.0721429  
H102     H      0.764070000000     0.903860000000     0.165020000000     0.0275848  
H103     H      0.700310000000     0.971800000000     0.336580000000     0.0430915  
H104     H      0.673080000000     0.902840000000     0.252220000000     0.0385718  
H105     H      0.888440000000     0.288430000000     0.714830000000     0.0614516  
H106     H      0.910160000000     0.195260000000     0.796520000000     0.0473957  
H107     H      0.979280000000     0.115350000000     0.753680000000     0.054296   
H108     H      0.951810000000     0.340630000000     0.698110000000     0.0627587  
H109     H      0.012620000000     0.263520000000     0.644710000000     0.0356389  
H110     H      0.984370000000     0.196170000000     0.835520000000     0.0526719  
H111     H      0.041520000000     0.169870000000     0.741110000000     0.0474656  
H112     H      0.049330000000     0.786180000000     0.778970000000     0.061268   
H113     H      0.048410000000     0.693000000000     0.698710000000     0.0438179  
H114     H      0.951210000000     0.630000000000     0.707990000000     0.0481837  
H115     H      0.995650000000     0.850680000000     0.766080000000     0.0701293  
H116     H      0.905670000000     0.782140000000     0.782030000000     0.0330606  
H117     H      0.998880000000     0.700880000000     0.631770000000     0.0493951  
H118     H      0.904280000000     0.699900000000     0.700820000000     0.0456364  
H119     H      0.927690000000     0.667600000000     0.269340000000     0.0624928  
H120     H      0.915070000000     0.757980000000     0.181120000000     0.0448482  
H121     H      0.994370000000     0.836610000000     0.198880000000     0.0531041  
H122     H      0.988220000000     0.609540000000     0.256590000000     0.0703227  
H123     H      0.069350000000     0.690330000000     0.264690000000     0.0306158  
H124     H      0.971660000000     0.757200000000     0.118250000000     0.0554875  
H125     H      0.056830000000     0.780590000000     0.188400000000     0.0452104  
H126     H      0.871820000000     0.201030000000     0.240490000000     0.0648276  
H127     H      0.938530000000     0.122020000000     0.169540000000     0.0648613  
H128     H      0.001230000000     0.187300000000     0.104820000000     0.0534318  
H129     H      0.905290000000     0.224960000000     0.312530000000     0.064397   
H130     H      0.981130000000     0.291180000000     0.259260000000     0.034635   
H131     H      0.019350000000     0.107130000000     0.192920000000     0.125678   
H132     H      0.052440000000     0.207490000000     0.166280000000     0.04342    
N1       N      0.771550000000     0.680290000000     0.977510000000    -0.169357   
N2       N      0.682920000000     0.773190000000     0.010450000000    -0.15688    
N3       N      0.696060000000     0.166970000000     0.978170000000    -0.16683    
N4       N      0.786860000000     0.263970000000     0.967430000000    -0.157524   
N5       N      0.265040000000     0.783430000000     0.966890000000    -0.168468   
N6       N      0.172630000000     0.691020000000     0.993200000000    -0.156271   
N7       N      0.183860000000     0.272820000000     0.936870000000    -0.170515   
N8       N      0.274760000000     0.184100000000     0.975000000000    -0.155966   
N9       N      0.694070000000     0.944480000000     0.784290000000    -0.166326   
N10      N      0.787910000000     0.932360000000     0.689700000000    -0.157934   
N11      N      0.270550000000     0.988590000000     0.777220000000    -0.166973   
N12      N      0.179400000000     0.007120000000     0.681410000000    -0.156205   
N13      N      0.173230000000     0.999970000000     0.262660000000    -0.171466   
N14      N      0.264750000000     0.015020000000     0.167830000000    -0.156688   
N15      N      0.687000000000     0.966790000000     0.176930000000    -0.168243   
N16      N      0.779270000000     0.975510000000     0.272430000000    -0.157546   
N17      N      0.967620000000     0.180710000000     0.676610000000    -0.165747   
N18      N      0.965610000000     0.273850000000     0.772970000000    -0.156647   
N19      N      0.955490000000     0.695620000000     0.785370000000    -0.169182   
N20      N      0.000440000000     0.780650000000     0.693920000000    -0.157518   
N21      N      0.007000000000     0.767930000000     0.274000000000    -0.168086   
N22      N      0.975210000000     0.678260000000     0.182530000000    -0.155912   
N23      N      0.967400000000     0.259090000000     0.167030000000    -0.170413   
N24      N      0.960000000000     0.160140000000     0.257170000000    -0.149804   
O1       O      0.804410000000     0.964880000000     0.375820000000    -0.361703   
O2       O      0.882340000000     0.967220000000     0.301580000000    -0.349738   
O3       O      0.970360000000     0.150820000000     0.573890000000    -0.33478    
O4       O      0.970920000000     0.075810000000     0.650710000000    -0.347264   
O5       O      0.961200000000     0.140830000000     0.362500000000    -0.354644   
O6       O      0.973720000000     0.060280000000     0.293710000000    -0.336324   
O7       O      0.809340000000     0.944620000000     0.585670000000    -0.355125   
O8       O      0.886310000000     0.961150000000     0.656820000000    -0.350091   
O9       O      0.769460000000     0.038420000000     0.489530000000    -0.340094   
O10      O      0.769820000000     0.880520000000     0.476790000000    -0.514037   
O11      O      0.871730000000     0.162500000000     0.471640000000    -0.5093     
O12      O      0.025910000000     0.199410000000     0.462400000000    -0.310556   
O13      O      0.901860000000     0.033990000000     0.413050000000    -0.46741    
O14      O      0.902420000000     0.038070000000     0.537880000000    -0.610626   
O15      O      0.994860000000     0.802490000000     0.589430000000    -0.357494   
O16      O      0.993890000000     0.882750000000     0.659210000000    -0.348518   
O17      O      0.151920000000     0.992500000000     0.367490000000    -0.369586   
O18      O      0.074180000000     0.976770000000     0.297190000000    -0.335507   
O19      O      0.155260000000     0.997910000000     0.577950000000    -0.353819   
O20      O      0.077760000000     0.989980000000     0.652380000000    -0.348432   
O21      O      0.999670000000     0.795280000000     0.377790000000    -0.336779   
O22      O      0.991810000000     0.870720000000     0.302270000000    -0.351824   
O23      O      0.087480000000     0.780310000000     0.484960000000    -0.507464   
O24      O      0.932320000000     0.746200000000     0.486380000000    -0.311841   
O25      O      0.187080000000     0.901400000000     0.477030000000    -0.34226    
O26      O      0.194260000000     0.060290000000     0.468570000000    -0.51074    
O27      O      0.058490000000     0.910590000000     0.540290000000    -0.608928   
O28      O      0.058720000000     0.906130000000     0.415650000000    -0.469123   
O29      O      0.917190000000     0.896150000000     0.548010000000    -0.472627   
O30      O      0.043530000000     0.048220000000     0.406620000000    -0.623059   
O31      O      0.915520000000     0.891440000000     0.414750000000    -0.62616    
O32      O      0.044880000000     0.053450000000     0.538870000000    -0.473496   
O33      O      0.973940000000     0.364120000000     0.145010000000    -0.33827    
O34      O      0.983100000000     0.293340000000     0.066180000000    -0.352804   
O35      O      0.802310000000     0.577340000000     0.975630000000    -0.344016   
O36      O      0.876120000000     0.652780000000     0.983050000000    -0.344894   
O37      O      0.808700000000     0.368050000000     0.976130000000    -0.359274   
O38      O      0.889110000000     0.296180000000     0.971990000000    -0.346868   
O39      O      0.983340000000     0.575500000000     0.153120000000    -0.352935   
O40      O      0.973250000000     0.652490000000     0.078650000000    -0.344877   
O41      O      0.908490000000     0.476410000000     0.189280000000    -0.309856   
O42      O      0.063560000000     0.462530000000     0.186410000000    -0.516188   
O43      O      0.783230000000     0.471040000000     0.070340000000    -0.514453   
O44      O      0.758080000000     0.470930000000     0.914030000000    -0.304421   
O45      O      0.913630000000     0.409560000000     0.047620000000    -0.462202   
O46      O      0.909390000000     0.534500000000     0.051350000000    -0.614364   
O47      O      0.149730000000     0.586920000000     0.984420000000    -0.356043   
O48      O      0.070060000000     0.659800000000     0.983920000000    -0.34093    
O49      O      0.971270000000     0.377760000000     0.799740000000    -0.360287   
O50      O      0.980930000000     0.301200000000     0.874880000000    -0.345588   
O51      O      0.962790000000     0.590520000000     0.807930000000    -0.355347   
O52      O      0.969850000000     0.660670000000     0.886560000000    -0.330521   
O53      O      0.156920000000     0.375780000000     0.955590000000    -0.333742   
O54      O      0.081730000000     0.300860000000     0.957850000000    -0.355426   
O55      O      0.180060000000     0.495620000000     0.885320000000    -0.509479   
O56      O      0.202460000000     0.471960000000     0.039230000000    -0.315414   
O57      O      0.065250000000     0.489280000000     0.776440000000    -0.342827   
O58      O      0.908270000000     0.484720000000     0.757210000000    -0.512251   
O59      O      0.046950000000     0.544640000000     0.905520000000    -0.609061   
O60      O      0.051500000000     0.419020000000     0.901060000000    -0.466941   
O61      O      0.052210000000     0.543000000000     0.047540000000    -0.473897   
O62      O      0.908900000000     0.412300000000     0.905380000000    -0.627421   
O63      O      0.056730000000     0.408100000000     0.042860000000    -0.621527   
O64      O      0.904160000000     0.545650000000     0.909580000000    -0.472157   
O65      O      0.590840000000     0.146430000000     0.971800000000    -0.361829   
O66      O      0.661150000000     0.065380000000     0.979340000000    -0.322029   
O67      O      0.368620000000     0.995040000000     0.147290000000    -0.358948   
O68      O      0.297200000000     0.992600000000     0.068660000000    -0.350461   
O69      O      0.581830000000     0.975230000000     0.152700000000    -0.360072   
O70      O      0.655330000000     0.971690000000     0.074840000000    -0.323652   
O71      O      0.378260000000     0.155010000000     0.968280000000    -0.355521   
O72      O      0.302670000000     0.079970000000     0.974660000000    -0.338495   
O73      O      0.481530000000     0.186290000000     0.048180000000    -0.335299   
O74      O      0.488400000000     0.191100000000     0.891570000000    -0.516536   
O75      O      0.479740000000     0.068370000000     0.175710000000    -0.5111     
O76      O      0.468440000000     0.912140000000     0.198630000000    -0.332129   
O77      O      0.541980000000     0.048550000000     0.044880000000    -0.466191   
O78      O      0.418070000000     0.052540000000     0.042060000000    -0.61069    
O79      O      0.375890000000     0.983800000000     0.801580000000    -0.353007   
O80      O      0.302120000000     0.981870000000     0.879330000000    -0.331028   
O81      O      0.579870000000     0.800370000000     0.997350000000    -0.366666   
O82      O      0.655520000000     0.875240000000     0.989870000000    -0.333956   
O83      O      0.368590000000     0.806950000000     0.980980000000    -0.335503   
O84      O      0.296630000000     0.886360000000     0.973660000000    -0.342484   
O85      O      0.588910000000     0.957410000000     0.806680000000    -0.355637   
O86      O      0.660110000000     0.961810000000     0.884910000000    -0.324702   
O87      O      0.474670000000     0.888700000000     0.775730000000    -0.51237    
O88      O      0.491930000000     0.043390000000     0.756060000000    -0.334242   
O89      O      0.482170000000     0.774210000000     0.899820000000    -0.323411   
O90      O      0.467630000000     0.759440000000     0.057210000000    -0.51162    
O91      O      0.416720000000     0.906290000000     0.909170000000    -0.614339   
O92      O      0.541030000000     0.901280000000     0.910890000000    -0.466548   
O93      O      0.414960000000     0.049310000000     0.900530000000    -0.472165   
O94      O      0.541130000000     0.905790000000     0.053320000000    -0.627741   
O95      O      0.550010000000     0.043420000000     0.902000000000    -0.624863   
O96      O      0.407310000000     0.910070000000     0.052400000000    -0.475769   
Zr1      Zr     0.851280000000     0.957930000000     0.479840000000     1.29315    
Zr2      Zr     0.968190000000     0.101720000000     0.471140000000     1.30115    
Zr3      Zr     0.992190000000     0.842780000000     0.481880000000     1.29991    
Zr4      Zr     0.109450000000     0.986460000000     0.474150000000     1.29463    
Zr5      Zr     0.979710000000     0.968020000000     0.359760000000     1.27331    
Zr6      Zr     0.981210000000     0.976590000000     0.594470000000     1.25832    
Zr7      Zr     0.986440000000     0.471460000000     0.105210000000     1.29757    
Zr8      Zr     0.850890000000     0.473880000000     0.979140000000     1.31052    
Zr9      Zr     0.110120000000     0.480050000000     0.973520000000     1.30059    
Zr10     Zr     0.975010000000     0.482670000000     0.847320000000     1.29293    
Zr11     Zr     0.984080000000     0.358730000000     0.972230000000     1.26469    
Zr12     Zr     0.976000000000     0.595600000000     0.980450000000     1.26446    
Zr13     Zr     0.483220000000     0.106720000000     0.967450000000     1.29503    
Zr14     Zr     0.475840000000     0.980050000000     0.106600000000     1.29258    
Zr15     Zr     0.481740000000     0.974720000000     0.847280000000     1.29047    
Zr16     Zr     0.475150000000     0.847660000000     0.986010000000     1.30226    
Zr17     Zr     0.596590000000     0.972510000000     0.978820000000     1.28528    
Zr18     Zr     0.360930000000     0.981190000000     0.975380000000     1.2681     


