data_structure

_audit_creation_method RASPA-1.0
_audit_creation_date 2023-6-5
_audit_author_name 'Poobodin Mano'

_cell_length_a    21.3865
_cell_length_b    21.4267
_cell_length_c    21.4402
_cell_angle_alpha 89.2564
_cell_angle_beta  89.2563
_cell_angle_gamma 89.2563
_cell_volume      9822.34

_symmetry_cell_setting          triclinic
_symmetry_space_group_name_Hall 'P 1'
_symmetry_space_group_name_H-M  'P 1'
_symmetry_Int_Tables_number     1

_symmetry_equiv_pos_as_xyz 'x,y,z'

loop_
_atom_site_label
_atom_site_type_symbol
_atom_site_fract_x
_atom_site_fract_y
_atom_site_fract_z
_atom_site_charge
C1       C      0.813580000000     0.980130000000     0.314750000000     0.380684   
C2       C      0.977780000000     0.128810000000     0.632960000000     0.377041   
C3       C      0.973160000000     0.121490000000     0.307400000000     0.388557   
C4       C      0.819860000000     0.974530000000     0.638960000000     0.39209    
C5       C      0.960030000000     0.821100000000     0.640010000000     0.389101   
C6       C      0.121760000000     0.951540000000     0.308710000000     0.393714   
C7       C      0.128060000000     0.968940000000     0.634300000000     0.380406   
C8       C      0.976700000000     0.814710000000     0.314030000000     0.384411   
C9       C      0.973240000000     0.307880000000     0.125700000000     0.390021   
C10      C      0.817500000000     0.636880000000     0.970750000000     0.391225   
C11      C      0.813330000000     0.312840000000     0.981620000000     0.37926    
C12      C      0.977880000000     0.632920000000     0.129950000000     0.37946    
C13      C      0.126000000000     0.633680000000     0.973850000000     0.382492   
C14      C      0.970360000000     0.311080000000     0.818130000000     0.378991   
C15      C      0.955090000000     0.637880000000     0.822870000000     0.391872   
C16      C      0.122250000000     0.308520000000     0.955050000000     0.392458   
C17      C      0.631700000000     0.127570000000     0.978020000000     0.380894   
C18      C      0.304770000000     0.962000000000     0.125940000000     0.389499   
C19      C      0.630500000000     0.975040000000     0.131670000000     0.378019   
C20      C      0.305940000000     0.125800000000     0.961790000000     0.389666   
C21      C      0.311570000000     0.968130000000     0.817210000000     0.379764   
C22      C      0.634610000000     0.820590000000     0.966480000000     0.393843   
C23      C      0.307600000000     0.818760000000     0.977110000000     0.380666   
C24      C      0.637680000000     0.972000000000     0.825090000000     0.391774   
C25      C      0.786740000000     0.743460000000     0.981810000000     0.0356546  
C26      C      0.715290000000     0.670520000000     0.944070000000     0.0573159  
C27      C      0.740410000000     0.789730000000     0.979630000000     0.0334157  
C28      C      0.669740000000     0.717430000000     0.938090000000    -0.0092665  
C29      C      0.614060000000     0.702600000000     0.900540000000     0.306972   
C30      C      0.739360000000     0.158300000000     0.980270000000     0.0374584  
C31      C      0.659520000000     0.234490000000     0.983290000000     0.0569462  
C32      C      0.784370000000     0.205410000000     0.982020000000     0.032514   
C33      C      0.703950000000     0.281850000000     0.986980000000    -0.0133357  
C34      C      0.678010000000     0.345270000000     0.998080000000     0.308644   
C35      C      0.232610000000     0.665600000000     0.974080000000     0.0350986  
C36      C      0.152580000000     0.741670000000     0.977190000000     0.0582708  
C37      C      0.277430000000     0.712400000000     0.974930000000     0.0263953  
C38      C      0.197320000000     0.789310000000     0.977900000000    -0.0105263  
C39      C      0.172170000000     0.853840000000     0.981370000000     0.307148   
C40      C      0.198520000000     0.155930000000     0.970060000000     0.0384861  
C41      C      0.272910000000     0.228030000000     0.932780000000     0.0595894  
C42      C      0.152140000000     0.202130000000     0.966930000000     0.0342198  
C43      C      0.225960000000     0.273590000000     0.925890000000    -0.00889224 
C44      C      0.241190000000     0.329330000000     0.886870000000     0.306704   
C45      C      0.714130000000     0.968320000000     0.672450000000     0.0371675  
C46      C      0.793110000000     0.977630000000     0.747110000000     0.0596208  
C47      C      0.669290000000     0.967010000000     0.719510000000     0.0287064  
C48      C      0.748150000000     0.975940000000     0.795300000000    -0.00900842 
C49      C      0.772330000000     0.979800000000     0.859520000000     0.305397   
C50      C      0.158320000000     0.977850000000     0.741170000000     0.0363834  
C51      C      0.234250000000     0.954650000000     0.664400000000     0.0575849  
C52      C      0.204820000000     0.977000000000     0.786760000000     0.0335653  
C53      C      0.280590000000     0.950250000000     0.710210000000    -0.011611   
C54      C      0.341160000000     0.922120000000     0.690110000000     0.309633   
C55      C      0.197020000000     0.967050000000     0.155780000000     0.043214   
C56      C      0.272470000000     0.932480000000     0.228040000000     0.0571668  
C57      C      0.150780000000     0.962560000000     0.202020000000     0.0313178  
C58      C      0.225980000000     0.924650000000     0.273650000000    -0.00981273 
C59      C      0.243220000000     0.887810000000     0.330190000000     0.305713   
C60      C      0.737850000000     0.967810000000     0.162260000000     0.0340349  
C61      C      0.660030000000     0.991650000000     0.236900000000     0.0547797  
C62      C      0.783440000000     0.969770000000     0.208610000000     0.0305198  
C63      C      0.705730000000     0.997340000000     0.282940000000    -0.0138358  
C64      C      0.684100000000     0.025200000000     0.342540000000     0.308102   
C65      C      0.973580000000     0.235600000000     0.664690000000     0.0331823  
C66      C      0.979420000000     0.156140000000     0.740850000000     0.0582455  
C67      C      0.970970000000     0.280550000000     0.711570000000     0.0268301  
C68      C      0.977190000000     0.200940000000     0.788500000000    -0.0101427  
C69      C      0.981010000000     0.175880000000     0.853010000000     0.309199   
C70      C      0.971450000000     0.790140000000     0.746540000000     0.0367316  
C71      C      0.929540000000     0.720400000000     0.674460000000     0.0577445  
C72      C      0.968970000000     0.743730000000     0.792700000000     0.0300273  
C73      C      0.923430000000     0.674840000000     0.721270000000    -0.00872405 
C74      C      0.883390000000     0.620660000000     0.707330000000     0.305369   
C75      C      0.965890000000     0.739560000000     0.161240000000     0.035145   
C76      C      0.997600000000     0.663370000000     0.234510000000     0.0528312  
C77      C      0.966370000000     0.784940000000     0.207820000000     0.0303514  
C78      C      0.001610000000     0.709200000000     0.280740000000    -0.00410775 
C79      C      0.035970000000     0.691260000000     0.338080000000     0.304306   
C80      C      0.970910000000     0.274610000000     0.231510000000     0.0344214  
C81      C      0.974970000000     0.199630000000     0.152250000000     0.0584212  
C82      C      0.970360000000     0.227480000000     0.276280000000     0.0255477  
C83      C      0.974320000000     0.151420000000     0.197110000000    -0.0121283  
C84      C      0.976730000000     0.087130000000     0.172610000000     0.306032   
H1       H      0.879950000000     0.072440000000     0.562250000000     0.209475   
H2       H      0.071310000000     0.061070000000     0.375880000000     0.205893   
H3       H      0.064270000000     0.871360000000     0.562970000000     0.206025   
H4       H      0.869290000000     0.877160000000     0.384360000000     0.208138   
H5       H      0.092680000000     0.164720000000     0.449920000000     0.12806    
H6       H      0.185810000000     0.077760000000     0.469040000000     0.195186   
H7       H      0.151440000000     0.843740000000     0.463610000000     0.150727   
H8       H      0.079790000000     0.766580000000     0.505270000000     0.194954   
H9       H      0.847370000000     0.779970000000     0.489310000000     0.133664   
H10      H      0.752560000000     0.868570000000     0.473720000000     0.193583   
H11      H      0.795260000000     0.099020000000     0.454580000000     0.159242   
H12      H      0.872240000000     0.185010000000     0.510160000000     0.201131   
H13      H      0.025320000000     0.715730000000     0.484920000000     0.222202   
H14      H      0.708620000000     0.933360000000     0.481090000000     0.214949   
H15      H      0.886260000000     0.201260000000     0.434850000000     0.210669   
H16      H      0.231030000000     0.015600000000     0.452570000000     0.218778   
H17      H      0.877510000000     0.561470000000     0.074010000000     0.215021   
H18      H      0.870020000000     0.382210000000     0.879980000000     0.209359   
H19      H      0.063360000000     0.562540000000     0.874510000000     0.210386   
H20      H      0.070570000000     0.376010000000     0.065060000000     0.206579   
H21      H      0.760800000000     0.470000000000     0.872920000000     0.13579    
H22      H      0.850550000000     0.468410000000     0.764750000000     0.199939   
H23      H      0.073780000000     0.440900000000     0.774070000000     0.15235    
H24      H      0.160000000000     0.490700000000     0.844210000000     0.201432   
H25      H      0.171850000000     0.471070000000     0.081320000000     0.13136    
H26      H      0.091710000000     0.455720000000     0.181280000000     0.192284   
H27      H      0.873700000000     0.432730000000     0.179590000000     0.150093   
H28      H      0.782690000000     0.449920000000     0.103100000000     0.213869   
H29      H      0.218460000000     0.480070000000     0.894480000000     0.218833   
H30      H      0.032390000000     0.470410000000     0.230880000000     0.212391   
H31      H      0.749380000000     0.515750000000     0.075960000000     0.206566   
H32      H      0.912010000000     0.469840000000     0.715590000000     0.212485   
H33      H      0.377030000000     0.068540000000     0.067920000000     0.211678   
H34      H      0.563150000000     0.875580000000     0.074660000000     0.206185   
H35      H      0.385260000000     0.876350000000     0.879650000000     0.210152   
H36      H      0.565020000000     0.069970000000     0.878170000000     0.208144   
H37      H      0.469400000000     0.862230000000     0.181230000000     0.130252   
H38      H      0.463840000000     0.766350000000     0.097950000000     0.19391    
H39      H      0.430730000000     0.771940000000     0.876240000000     0.139343   
H40      H      0.475450000000     0.846050000000     0.790960000000     0.213879   
H41      H      0.478300000000     0.086710000000     0.774080000000     0.130059   
H42      H      0.478870000000     0.187630000000     0.859070000000     0.195029   
H43      H      0.498430000000     0.168170000000     0.080960000000     0.151652   
H44      H      0.417250000000     0.072000000000     0.188370000000     0.206262   
H45      H      0.493690000000     0.895510000000     0.732710000000     0.21778    
H46      H      0.470350000000     0.233790000000     0.921090000000     0.216054   
H47      H      0.494170000000     0.084050000000     0.181260000000     0.209327   
H48      H      0.488350000000     0.717870000000     0.041830000000     0.215026   
H49      H      0.752140000000     0.835450000000     0.996710000000     0.0399971  
H50      H      0.832340000000     0.755920000000     0.998950000000     0.0401091  
H51      H      0.704730000000     0.624360000000     0.927070000000     0.0526597  
H52      H      0.549400000000     0.636330000000     0.884250000000     0.19287    
H53      H      0.832990000000     0.190760000000     0.981290000000     0.048402   
H54      H      0.755660000000     0.110230000000     0.978400000000     0.0532639  
H55      H      0.610450000000     0.248130000000     0.985210000000     0.0400638  
H56      H      0.671310000000     0.414630000000     0.061370000000     0.184504   
H57      H      0.325990000000     0.697220000000     0.973790000000     0.0419617  
H58      H      0.249270000000     0.617630000000     0.972430000000     0.0407055  
H59      H      0.103440000000     0.755100000000     0.978420000000     0.0435341  
H60      H      0.156830000000     0.933510000000     0.931480000000     0.186056   
H61      H      0.105540000000     0.189810000000     0.982940000000     0.0530556  
H62      H      0.185360000000     0.110020000000     0.987140000000     0.0451071  
H63      H      0.319750000000     0.238820000000     0.916080000000     0.0447358  
H64      H      0.210770000000     0.383510000000     0.814640000000     0.178409   
H65      H      0.621220000000     0.962530000000     0.704860000000     0.0415092  
H66      H      0.697990000000     0.964740000000     0.624890000000     0.0384591  
H67      H      0.841970000000     0.981710000000     0.759480000000     0.0450205  
H68      H      0.785100000000     0.931300000000     0.940310000000     0.182016   
H69      H      0.190540000000     0.988280000000     0.834000000000     0.0467343  
H70      H      0.110700000000     0.988450000000     0.755860000000     0.0457772  
H71      H      0.247450000000     0.943440000000     0.616720000000     0.0469648  
H72      H      0.410450000000     0.926570000000     0.624610000000     0.182329   
H73      H      0.103640000000     0.976620000000     0.189620000000     0.0590453  
H74      H      0.183360000000     0.983320000000     0.109770000000     0.0526627  
H75      H      0.319760000000     0.917330000000     0.239050000000     0.0494299  
H76      H      0.310510000000     0.874150000000     0.395130000000     0.190426   
H77      H      0.831070000000     0.958340000000     0.194870000000     0.0412699  
H78      H      0.752980000000     0.956430000000     0.115250000000     0.0392652  
H79      H      0.611800000000     0.002550000000     0.249510000000     0.0466741  
H80      H      0.618480000000     0.019390000000     0.411630000000     0.184714   
H81      H      0.967610000000     0.328910000000     0.696370000000     0.0383858  
H82      H      0.971770000000     0.251980000000     0.616680000000     0.0396591  
H83      H      0.982970000000     0.107210000000     0.754380000000     0.0454184  
H84      H      0.931610000000     0.160450000000     0.932910000000     0.186929   
H85      H      0.986980000000     0.754930000000     0.838210000000     0.0446706  
H86      H      0.990160000000     0.835100000000     0.758740000000     0.0428399  
H87      H      0.910850000000     0.710700000000     0.628780000000     0.048506   
H88      H      0.861030000000     0.558780000000     0.640440000000     0.180483   
H89      H      0.951980000000     0.831960000000     0.194680000000     0.0422831  
H90      H      0.952100000000     0.754100000000     0.114730000000     0.0415714  
H91      H      0.012790000000     0.616160000000     0.246230000000     0.0461575  
H92      H      0.108210000000     0.715330000000     0.393160000000     0.182392   
H93      H      0.968280000000     0.242240000000     0.324460000000     0.0393849  
H94      H      0.969160000000     0.322330000000     0.247780000000     0.0356827  
H95      H      0.976850000000     0.187130000000     0.103310000000     0.0427922  
H96      H      0.927180000000     0.008000000000     0.162450000000     0.183506   
N1       N      0.773400000000     0.683500000000     0.966080000000    -0.176589   
N2       N      0.681260000000     0.776380000000     0.960220000000    -0.158466   
N3       N      0.676860000000     0.172900000000     0.980170000000    -0.174201   
N4       N      0.767430000000     0.267520000000     0.984210000000    -0.154514   
N5       N      0.170100000000     0.680040000000     0.974940000000    -0.174508   
N6       N      0.260720000000     0.774570000000     0.976560000000    -0.155439   
N7       N      0.259260000000     0.169710000000     0.955400000000    -0.176691   
N8       N      0.166290000000     0.261760000000     0.947950000000    -0.156572   
N9       N      0.776020000000     0.973680000000     0.686050000000    -0.177427   
N10      N      0.685300000000     0.971220000000     0.781130000000    -0.157779   
N11      N      0.173160000000     0.967660000000     0.679770000000    -0.17343    
N12      N      0.266320000000     0.964450000000     0.771690000000    -0.15407    
N13      N      0.258140000000     0.954470000000     0.169660000000    -0.17669    
N14      N      0.165650000000     0.944780000000     0.261810000000    -0.157797   
N15      N      0.675950000000     0.977630000000     0.176600000000    -0.174249   
N16      N      0.767920000000     0.983390000000     0.269390000000    -0.154996   
N17      N      0.977180000000     0.173250000000     0.679150000000    -0.173215   
N18      N      0.972470000000     0.264160000000     0.773820000000    -0.154749   
N19      N      0.954120000000     0.777490000000     0.686920000000    -0.176726   
N20      N      0.948020000000     0.685140000000     0.779450000000    -0.157935   
N21      N      0.980030000000     0.678430000000     0.174870000000    -0.172479   
N22      N      0.982230000000     0.769880000000     0.268170000000    -0.155807   
N23      N      0.973100000000     0.260840000000     0.169530000000    -0.178801   
N24      N      0.972270000000     0.165650000000     0.260040000000    -0.158455   
O1       O      0.795880000000     0.979580000000     0.372720000000    -0.346477   
O2       O      0.871970000000     0.975660000000     0.297620000000    -0.339146   
O3       O      0.979780000000     0.147540000000     0.575090000000    -0.350984   
O4       O      0.975430000000     0.070390000000     0.649450000000    -0.343544   
O5       O      0.975080000000     0.141070000000     0.364300000000    -0.363986   
O6       O      0.972370000000     0.063160000000     0.293540000000    -0.340639   
O7       O      0.800150000000     0.972330000000     0.582210000000    -0.357199   
O8       O      0.878270000000     0.977080000000     0.653510000000    -0.351707   
O9       O      0.775350000000     0.067960000000     0.482760000000    -0.327646   
O10      O      0.749250000000     0.913390000000     0.477390000000    -0.511218   
O11      O      0.896010000000     0.177660000000     0.472260000000    -0.514407   
O12      O      0.053360000000     0.184760000000     0.464800000000    -0.32311    
O13      O      0.903110000000     0.044430000000     0.411230000000    -0.46424    
O14      O      0.904580000000     0.045490000000     0.535490000000    -0.612939   
O15      O      0.954260000000     0.802190000000     0.583270000000    -0.357039   
O16      O      0.970820000000     0.878370000000     0.654520000000    -0.350632   
O17      O      0.141240000000     0.953470000000     0.365580000000    -0.348847   
O18      O      0.063760000000     0.958750000000     0.293620000000    -0.344072   
O19      O      0.146390000000     0.967070000000     0.576340000000    -0.348671   
O20      O      0.069690000000     0.971400000000     0.651240000000    -0.344188   
O21      O      0.975030000000     0.796630000000     0.372100000000    -0.335959   
O22      O      0.971830000000     0.872820000000     0.297020000000    -0.343736   
O23      O      0.038310000000     0.758310000000     0.490420000000    -0.508961   
O24      O      0.886230000000     0.760320000000     0.472790000000    -0.326538   
O25      O      0.174350000000     0.879850000000     0.479690000000    -0.323935   
O26      O      0.190430000000     0.033380000000     0.462610000000    -0.516379   
O27      O      0.039500000000     0.897950000000     0.535910000000    -0.614145   
O28      O      0.038610000000     0.896380000000     0.412550000000    -0.459083   
O29      O      0.897930000000     0.904470000000     0.544140000000    -0.472881   
O30      O      0.044790000000     0.037680000000     0.404260000000    -0.619693   
O31      O      0.895690000000     0.901880000000     0.410360000000    -0.62829    
O32      O      0.047380000000     0.040780000000     0.537850000000    -0.47427    
O33      O      0.974740000000     0.364790000000     0.145180000000    -0.368777   
O34      O      0.972000000000     0.293070000000     0.067470000000    -0.354557   
O35      O      0.798710000000     0.579880000000     0.966700000000    -0.357657   
O36      O      0.875250000000     0.652030000000     0.978280000000    -0.350147   
O37      O      0.795830000000     0.370800000000     0.979500000000    -0.345501   
O38      O      0.871890000000     0.295720000000     0.979710000000    -0.338637   
O39      O      0.982630000000     0.575020000000     0.148080000000    -0.348862   
O40      O      0.971170000000     0.649740000000     0.072000000000    -0.343328   
O41      O      0.890840000000     0.475420000000     0.178030000000    -0.336764   
O42      O      0.047840000000     0.464470000000     0.188790000000    -0.513287   
O43      O      0.778640000000     0.481420000000     0.070710000000    -0.514219   
O44      O      0.746140000000     0.474150000000     0.916690000000    -0.308303   
O45      O      0.902020000000     0.410100000000     0.046960000000    -0.467643   
O46      O      0.902420000000     0.534560000000     0.047440000000    -0.611741   
O47      O      0.145330000000     0.576000000000     0.974070000000    -0.352182   
O48      O      0.067370000000     0.649790000000     0.972820000000    -0.348243   
O49      O      0.968130000000     0.368960000000     0.798990000000    -0.355962   
O50      O      0.970750000000     0.295790000000     0.876660000000    -0.333061   
O51      O      0.953910000000     0.580820000000     0.803590000000    -0.340268   
O52      O      0.964560000000     0.652700000000     0.880280000000    -0.349179   
O53      O      0.141460000000     0.365600000000     0.956420000000    -0.342171   
O54      O      0.064380000000     0.293090000000     0.962900000000    -0.343797   
O55      O      0.174190000000     0.482180000000     0.886090000000    -0.510137   
O56      O      0.189120000000     0.461580000000     0.039380000000    -0.324637   
O57      O      0.051590000000     0.481620000000     0.770660000000    -0.340538   
O58      O      0.895170000000     0.470730000000     0.757620000000    -0.509034   
O59      O      0.038710000000     0.535210000000     0.900940000000    -0.611499   
O60      O      0.038980000000     0.410720000000     0.900340000000    -0.463434   
O61      O      0.045130000000     0.537830000000     0.043280000000    -0.474624   
O62      O      0.896300000000     0.408390000000     0.904640000000    -0.628234   
O63      O      0.043940000000     0.404000000000     0.041320000000    -0.620537   
O64      O      0.897480000000     0.541510000000     0.905720000000    -0.466481   
O65      O      0.573680000000     0.145820000000     0.975260000000    -0.361599   
O66      O      0.648790000000     0.069280000000     0.978910000000    -0.340898   
O67      O      0.361910000000     0.959180000000     0.145170000000    -0.35995    
O68      O      0.289630000000     0.970700000000     0.068170000000    -0.345142   
O69      O      0.572320000000     0.975530000000     0.149860000000    -0.354582   
O70      O      0.647720000000     0.972670000000     0.073560000000    -0.348278   
O71      O      0.363230000000     0.144720000000     0.958670000000    -0.352892   
O72      O      0.290550000000     0.068080000000     0.970260000000    -0.352068   
O73      O      0.458060000000     0.171800000000     0.059030000000    -0.334667   
O74      O      0.473580000000     0.192530000000     0.903560000000    -0.513431   
O75      O      0.457680000000     0.060150000000     0.171350000000    -0.513503   
O76      O      0.470690000000     0.905340000000     0.197220000000    -0.318412   
O77      O      0.530320000000     0.044140000000     0.045490000000    -0.4694     
O78      O      0.405300000000     0.043090000000     0.043230000000    -0.608043   
O79      O      0.369680000000     0.971420000000     0.799600000000    -0.339332   
O80      O      0.294070000000     0.969090000000     0.875450000000    -0.337131   
O81      O      0.577340000000     0.801760000000     0.968460000000    -0.345125   
O82      O      0.650200000000     0.878320000000     0.972100000000    -0.344753   
O83      O      0.365380000000     0.799390000000     0.979840000000    -0.356341   
O84      O      0.292410000000     0.877260000000     0.974290000000    -0.334891   
O85      O      0.580640000000     0.972070000000     0.805360000000    -0.358179   
O86      O      0.651440000000     0.973450000000     0.883370000000    -0.338883   
O87      O      0.482080000000     0.888150000000     0.775860000000    -0.503437   
O88      O      0.475010000000     0.044550000000     0.756140000000    -0.321672   
O89      O      0.468820000000     0.763320000000     0.900780000000    -0.316658   
O90      O      0.475330000000     0.759090000000     0.054890000000    -0.518639   
O91      O      0.411060000000     0.902110000000     0.905200000000    -0.617443   
O92      O      0.535110000000     0.902360000000     0.907530000000    -0.454493   
O93      O      0.404120000000     0.044350000000     0.901010000000    -0.474397   
O94      O      0.536250000000     0.901270000000     0.048780000000    -0.623365   
O95      O      0.537790000000     0.044220000000     0.903630000000    -0.62486    
O96      O      0.402220000000     0.901690000000     0.047260000000    -0.473211   
O97      O      0.585220000000     0.647330000000     0.908750000000    -0.334337   
O98      O      0.595870000000     0.739310000000     0.860400000000    -0.217762   
O99      O      0.689810000000     0.374310000000     0.052060000000    -0.326998   
O100     O      0.643410000000     0.369840000000     0.959770000000    -0.230816   
O101     O      0.173620000000     0.891380000000     0.930340000000    -0.322794   
O102     O      0.148330000000     0.872330000000     0.029940000000    -0.230397   
O103     O      0.200820000000     0.349240000000     0.842710000000    -0.322576   
O104     O      0.291250000000     0.355420000000     0.892610000000    -0.24287    
O105     O      0.768780000000     0.929940000000     0.898470000000    -0.315388   
O106     O      0.797810000000     0.027360000000     0.876300000000    -0.234628   
O107     O      0.371320000000     0.944760000000     0.639110000000    -0.33308    
O108     O      0.362260000000     0.876620000000     0.718030000000    -0.242029   
O109     O      0.298030000000     0.898090000000     0.358680000000    -0.33758    
O110     O      0.208920000000     0.846470000000     0.349520000000    -0.223739   
O111     O      0.633980000000     0.001500000000     0.373110000000    -0.337679   
O112     O      0.709840000000     0.071300000000     0.362480000000    -0.230008   
O113     O      0.930130000000     0.177360000000     0.890880000000    -0.321253   
O114     O      0.029710000000     0.151780000000     0.871100000000    -0.231567   
O115     O      0.887410000000     0.593360000000     0.650960000000    -0.336108   
O116     O      0.844850000000     0.602480000000     0.745830000000    -0.231158   
O117     O      0.082890000000     0.727390000000     0.357820000000    -0.315586   
O118     O      0.024110000000     0.642420000000     0.365570000000    -0.241766   
O119     O      0.926670000000     0.049780000000     0.179060000000    -0.318034   
O120     O      0.023130000000     0.068990000000     0.143960000000    -0.238707   
Zr1      Zr     0.842380000000     0.975470000000     0.476440000000     1.30328    
Zr2      Zr     0.978720000000     0.100060000000     0.470930000000     1.29357    
Zr3      Zr     0.963650000000     0.842360000000     0.476870000000     1.29884    
Zr4      Zr     0.100650000000     0.966980000000     0.471690000000     1.29923    
Zr5      Zr     0.969670000000     0.969030000000     0.356420000000     1.26834    
Zr6      Zr     0.973380000000     0.973110000000     0.591430000000     1.26205    
Zr7      Zr     0.976850000000     0.470710000000     0.102540000000     1.29598    
Zr8      Zr     0.841700000000     0.474600000000     0.977050000000     1.30639    
Zr9      Zr     0.099760000000     0.471440000000     0.970670000000     1.30016    
Zr10     Zr     0.964730000000     0.474390000000     0.844880000000     1.29903    
Zr11     Zr     0.969570000000     0.355060000000     0.972730000000     1.26895    
Zr12     Zr     0.970990000000     0.590430000000     0.975070000000     1.26191    
Zr13     Zr     0.468610000000     0.101750000000     0.970840000000     1.29715    
Zr14     Zr     0.467610000000     0.971250000000     0.104000000000     1.29599    
Zr15     Zr     0.473750000000     0.974520000000     0.846400000000     1.30521    
Zr16     Zr     0.471230000000     0.843760000000     0.979990000000     1.29906    
Zr17     Zr     0.588250000000     0.973320000000     0.977280000000     1.27078    
Zr18     Zr     0.352420000000     0.972630000000     0.973040000000     1.26501    


