data_structure

_audit_creation_method RASPA-1.0
_audit_creation_date 2023-6-5
_audit_author_name 'Poobodin Mano'

_cell_length_a    27.4862
_cell_length_b    27.5946
_cell_length_c    27.4244
_cell_angle_alpha 89.2565
_cell_angle_beta  89.2563
_cell_angle_gamma 89.2563
_cell_volume      20795.4

_symmetry_cell_setting          triclinic
_symmetry_space_group_name_Hall 'P 1'
_symmetry_space_group_name_H-M  'P 1'
_symmetry_Int_Tables_number     1

_symmetry_equiv_pos_as_xyz 'x,y,z'

loop_
_atom_site_label
_atom_site_type_symbol
_atom_site_fract_x
_atom_site_fract_y
_atom_site_fract_z
_atom_site_charge
C1       C      0.859960000000     0.987910000000     0.358240000000     0.383594   
C2       C      0.988910000000     0.101670000000     0.606800000000     0.377731   
C3       C      0.987120000000     0.097580000000     0.352630000000     0.387159   
C4       C      0.864510000000     0.985710000000     0.611520000000     0.38876    
C5       C      0.977430000000     0.863590000000     0.612080000000     0.390395   
C6       C      0.096680000000     0.957540000000     0.352140000000     0.392284   
C7       C      0.104740000000     0.981640000000     0.606470000000     0.381312   
C8       C      0.989280000000     0.860620000000     0.356360000000     0.382804   
C9       C      0.975720000000     0.351560000000     0.100190000000     0.392072   
C10      C      0.864320000000     0.609460000000     0.987440000000     0.391326   
C11      C      0.857450000000     0.357000000000     0.986950000000     0.375061   
C12      C      0.995410000000     0.603600000000     0.105330000000     0.377905   
C13      C      0.104420000000     0.603090000000     0.978340000000     0.380377   
C14      C      0.972870000000     0.357290000000     0.859000000000     0.377778   
C15      C      0.975830000000     0.609270000000     0.865320000000     0.390457   
C16      C      0.097910000000     0.350370000000     0.977050000000     0.387944   
C17      C      0.606200000000     0.100470000000     0.987450000000     0.37653    
C18      C      0.351440000000     0.961630000000     0.101660000000     0.385274   
C19      C      0.604680000000     0.977950000000     0.107370000000     0.379105   
C20      C      0.352840000000     0.097900000000     0.982880000000     0.390029   
C21      C      0.357670000000     0.980770000000     0.861350000000     0.381825   
C22      C      0.608930000000     0.860830000000     0.985990000000     0.388976   
C23      C      0.355680000000     0.858380000000     0.983420000000     0.379877   
C24      C      0.611190000000     0.983200000000     0.867440000000     0.388227   
C25      C      0.838130000000     0.689820000000     0.010950000000     0.1028     
C26      C      0.788220000000     0.639900000000     0.962820000000     0.0708881  
C27      C      0.802340000000     0.726200000000     0.010090000000    -0.0988732  
C28      C      0.730910000000     0.806160000000     0.985960000000    -0.0854017  
C29      C      0.752620000000     0.675890000000     0.960630000000    -0.0892571  
C30      C      0.719970000000     0.756750000000     0.985710000000     0.0323867  
C31      C      0.759070000000     0.719410000000     0.985000000000     0.039512   
C32      C      0.693390000000     0.840500000000     0.987250000000     0.0694409  
C33      C      0.634630000000     0.778330000000     0.986950000000     0.0681123  
C34      C      0.671130000000     0.743100000000     0.986940000000    -0.0862512  
C35      C      0.689420000000     0.125900000000     0.970140000000     0.0972518  
C36      C      0.631300000000     0.180560000000     0.004120000000     0.066156   
C37      C      0.724820000000     0.162300000000     0.970910000000    -0.096021   
C38      C      0.738490000000     0.296880000000     0.983720000000    -0.0817908  
C39      C      0.666150000000     0.217070000000     0.005770000000    -0.0860325  
C40      C      0.751510000000     0.247720000000     0.989290000000     0.0299835  
C41      C      0.713810000000     0.208550000000     0.988960000000     0.0368639  
C42      C      0.774120000000     0.332830000000     0.983680000000     0.0627834  
C43      C      0.835950000000     0.273270000000     0.993640000000     0.0658673  
C44      C      0.801190000000     0.236510000000     0.994700000000    -0.0828936  
C45      C      0.186650000000     0.630440000000     0.959960000000     0.101756   
C46      C      0.127310000000     0.684330000000     0.993170000000     0.067642   
C47      C      0.221490000000     0.667160000000     0.961390000000    -0.0974454  
C48      C      0.296360000000     0.739710000000     0.990730000000    -0.0830834  
C49      C      0.161620000000     0.721340000000     0.995230000000    -0.0872986  
C50      C      0.247490000000     0.751790000000     0.981940000000     0.0305752  
C51      C      0.209690000000     0.713070000000     0.979660000000     0.0393591  
C52      C      0.331760000000     0.775650000000     0.991040000000     0.0673652  
C53      C      0.271970000000     0.836280000000     0.976020000000     0.0665031  
C54      C      0.235630000000     0.801030000000     0.974820000000    -0.0818362  
C55      C      0.122160000000     0.267140000000     0.961130000000     0.101284   
C56      C      0.176680000000     0.322410000000     0.996660000000     0.0661097  
C57      C      0.157890000000     0.230700000000     0.963350000000    -0.0998225  
C58      C      0.290710000000     0.215340000000     0.973340000000    -0.0861832  
C59      C      0.212460000000     0.286600000000     0.999780000000    -0.090245   
C60      C      0.242370000000     0.202620000000     0.982750000000     0.0319617  
C61      C      0.203530000000     0.240250000000     0.982530000000     0.0398033  
C62      C      0.327040000000     0.179900000000     0.973720000000     0.0702431  
C63      C      0.268830000000     0.119030000000     0.990770000000     0.0684243  
C64      C      0.231600000000     0.153790000000     0.991560000000    -0.085347   
C65      C      0.694530000000     0.965560000000     0.842780000000     0.100319   
C66      C      0.640020000000     0.007160000000     0.789610000000     0.066794   
C67      C      0.731350000000     0.968560000000     0.807230000000    -0.0992518  
C68      C      0.809280000000     0.996210000000     0.733400000000    -0.0862355  
C69      C      0.676180000000     0.010850000000     0.753920000000    -0.0885778  
C70      C      0.759900000000     0.990690000000     0.722970000000     0.0326497  
C71      C      0.722320000000     0.990880000000     0.762210000000     0.0380376  
C72      C      0.843980000000     0.994100000000     0.695840000000     0.068963   
C73      C      0.781990000000     0.982130000000     0.638010000000     0.0701042  
C74      C      0.746590000000     0.983420000000     0.674600000000    -0.086284   
C75      C      0.331280000000     0.960890000000     0.780020000000     0.102856   
C76      C      0.276710000000     0.997810000000     0.836600000000     0.0666532  
C77      C      0.295030000000     0.962230000000     0.744510000000    -0.0971453  
C78      C      0.223570000000     0.987960000000     0.666080000000    -0.0829319  
C79      C      0.240240000000     0.000280000000     0.801390000000    -0.0840531  
C80      C      0.210730000000     0.984390000000     0.715740000000     0.0313321  
C81      C      0.249070000000     0.982640000000     0.754320000000     0.0379694  
C82      C      0.187860000000     0.986900000000     0.630260000000     0.0673221  
C83      C      0.126100000000     0.981940000000     0.690910000000     0.0675888  
C84      C      0.161010000000     0.981690000000     0.727700000000    -0.0826048  
C85      C      0.115600000000     0.938960000000     0.266840000000     0.100109   
C86      C      0.177600000000     0.942090000000     0.326480000000     0.0677892  
C87      C      0.151450000000     0.931540000000     0.230640000000    -0.0973413  
C88      C      0.229680000000     0.957880000000     0.157500000000    -0.0835956  
C89      C      0.213500000000     0.936960000000     0.290800000000    -0.0889295  
C90      C      0.239320000000     0.935690000000     0.202800000000     0.0308945  
C91      C      0.200970000000     0.933080000000     0.241840000000     0.0393669  
C92      C      0.267260000000     0.964970000000     0.123510000000     0.0677889  
C93      C      0.324110000000     0.929410000000     0.177900000000     0.0669994  
C94      C      0.287160000000     0.920030000000     0.211860000000    -0.0835039  
C95      C      0.778520000000     0.008870000000     0.330970000000     0.100191   
C96      C      0.835740000000     0.971330000000     0.277410000000     0.0668234  
C97      C      0.742760000000     0.006350000000     0.295150000000    -0.0973548  
C98      C      0.665710000000     0.973860000000     0.225900000000    -0.0827162  
C99      C      0.800520000000     0.968270000000     0.241240000000    -0.0878816  
C100     C      0.714380000000     0.981960000000     0.212340000000     0.0300951  
C101     C      0.753040000000     0.985260000000     0.250020000000     0.038165   
C102     C      0.629600000000     0.972610000000     0.190500000000     0.0639907  
C103     C      0.688450000000     0.985690000000     0.128060000000     0.066262   
C104     C      0.725390000000     0.987660000000     0.162570000000    -0.0828181  
C105     C      0.964020000000     0.332010000000     0.774270000000     0.098725   
C106     C      0.977930000000     0.274050000000     0.837220000000     0.063787   
C107     C      0.967000000000     0.295080000000     0.739550000000    -0.0973232  
C108     C      0.998180000000     0.219150000000     0.667600000000    -0.0843665  
C109     C      0.982180000000     0.236890000000     0.803050000000    -0.0866254  
C110     C      0.982350000000     0.208080000000     0.715370000000     0.0305109  
C111     C      0.977460000000     0.247020000000     0.753150000000     0.0376741  
C112     C      0.000190000000     0.183300000000     0.631990000000     0.0664653  
C113     C      0.974540000000     0.124310000000     0.689800000000     0.0655671  
C114     C      0.970790000000     0.159600000000     0.726040000000    -0.0828008  
C115     C      0.996830000000     0.837840000000     0.694400000000     0.101777   
C116     C      0.951400000000     0.787790000000     0.642130000000     0.070565   
C117     C      0.993880000000     0.802570000000     0.731300000000    -0.100135   
C118     C      0.966970000000     0.730900000000     0.810830000000    -0.0845873  
C119     C      0.947530000000     0.752510000000     0.678510000000    -0.0895444  
C120     C      0.969560000000     0.720280000000     0.761030000000     0.0320388  
C121     C      0.969490000000     0.759320000000     0.723500000000     0.0407115  
C122     C      0.969470000000     0.693450000000     0.845390000000     0.0695682  
C123     C      0.975560000000     0.635360000000     0.782500000000     0.0693026  
C124     C      0.974010000000     0.671820000000     0.747170000000    -0.0857362  
C125     C      0.006580000000     0.838360000000     0.271360000000     0.0986968  
C126     C      0.994620000000     0.778160000000     0.332830000000     0.0655725  
C127     C      0.013160000000     0.801570000000     0.236560000000    -0.0951538  
C128     C      0.996800000000     0.724240000000     0.161450000000    -0.0827742  
C129     C      0.998390000000     0.741420000000     0.298270000000    -0.0870398  
C130     C      0.007160000000     0.713300000000     0.210550000000     0.0309426  
C131     C      0.007220000000     0.752370000000     0.248930000000     0.0384094  
C132     C      0.994790000000     0.687490000000     0.126750000000     0.0659919  
C133     C      0.011400000000     0.628060000000     0.187170000000     0.066643   
C134     C      0.015550000000     0.664110000000     0.222500000000    -0.0818912  
C135     C      0.954110000000     0.321410000000     0.180400000000     0.102859   
C136     C      0.991210000000     0.269710000000     0.121460000000     0.068916   
C137     C      0.956630000000     0.284190000000     0.215120000000    -0.100681   
C138     C      0.995070000000     0.214180000000     0.288940000000    -0.0857507  
C139     C      0.994460000000     0.232140000000     0.155680000000    -0.0901419  
C140     C      0.983250000000     0.201490000000     0.241390000000     0.0312902  
C141     C      0.978060000000     0.239610000000     0.203400000000     0.040637   
C142     C      0.996730000000     0.178900000000     0.325410000000     0.0653517  
C143     C      0.978140000000     0.118030000000     0.268470000000     0.0677645  
C144     C      0.975470000000     0.152680000000     0.231090000000    -0.0847865  
H1       H      0.912210000000     0.059730000000     0.550910000000     0.208861   
H2       H      0.061290000000     0.049260000000     0.404910000000     0.202356   
H3       H      0.054740000000     0.902720000000     0.551490000000     0.204677   
H4       H      0.902490000000     0.907890000000     0.412210000000     0.203902   
H5       H      0.078040000000     0.131870000000     0.467320000000     0.125304   
H6       H      0.150620000000     0.061490000000     0.473510000000     0.187165   
H7       H      0.126920000000     0.883000000000     0.466070000000     0.144473   
H8       H      0.065940000000     0.820940000000     0.507320000000     0.192712   
H9       H      0.885480000000     0.831850000000     0.495650000000     0.130346   
H10      H      0.812390000000     0.901240000000     0.478610000000     0.185889   
H11      H      0.841100000000     0.077490000000     0.462160000000     0.14878    
H12      H      0.910740000000     0.150930000000     0.511120000000     0.198752   
H13      H      0.029970000000     0.784860000000     0.475580000000     0.2057     
H14      H      0.778470000000     0.950200000000     0.492120000000     0.202793   
H15      H      0.910170000000     0.150810000000     0.450140000000     0.203493   
H16      H      0.184800000000     0.012560000000     0.460560000000     0.203386   
H17      H      0.910480000000     0.549730000000     0.062310000000     0.207891   
H18      H      0.900720000000     0.412310000000     0.909360000000     0.205513   
H19      H      0.054100000000     0.548820000000     0.905250000000     0.207356   
H20      H      0.056750000000     0.403460000000     0.054180000000     0.202912   
H21      H      0.819760000000     0.486420000000     0.902670000000     0.127344   
H22      H      0.886320000000     0.475160000000     0.820590000000     0.187174   
H23      H      0.058960000000     0.452290000000     0.826910000000     0.150271   
H24      H      0.128850000000     0.498650000000     0.881950000000     0.198318   
H25      H      0.141580000000     0.464870000000     0.062730000000     0.125854   
H26      H      0.076200000000     0.463960000000     0.144000000000     0.185561   
H27      H      0.894940000000     0.464430000000     0.131850000000     0.147468   
H28      H      0.819250000000     0.515330000000     0.071990000000     0.198724   
H29      H      0.161020000000     0.453020000000     0.906780000000     0.205666   
H30      H      0.029580000000     0.468910000000     0.183600000000     0.202997   
H31      H      0.817600000000     0.454740000000     0.072480000000     0.203082   
H32      H      0.928790000000     0.501010000000     0.784920000000     0.205183   
H33      H      0.407640000000     0.050170000000     0.060290000000     0.208986   
H34      H      0.552500000000     0.901950000000     0.060600000000     0.205079   
H35      H      0.415310000000     0.906740000000     0.907190000000     0.209065   
H36      H      0.554200000000     0.057750000000     0.911990000000     0.204073   
H37      H      0.483440000000     0.888070000000     0.144100000000     0.126842   
H38      H      0.484180000000     0.810460000000     0.070600000000     0.186531   
H39      H      0.515940000000     0.830590000000     0.898840000000     0.150069   
H40      H      0.472960000000     0.889450000000     0.832720000000     0.199755   
H41      H      0.491530000000     0.073070000000     0.830330000000     0.125387   
H42      H      0.486100000000     0.149230000000     0.900650000000     0.186295   
H43      H      0.505720000000     0.128050000000     0.072730000000     0.147527   
H44      H      0.436960000000     0.049330000000     0.154030000000     0.199137   
H45      H      0.507940000000     0.923880000000     0.796350000000     0.206001   
H46      H      0.476820000000     0.183200000000     0.950140000000     0.203009   
H47      H      0.496420000000     0.060720000000     0.148190000000     0.203336   
H48      H      0.483570000000     0.775760000000     0.020980000000     0.203341   
H49      H      0.703470000000     0.878270000000     0.988540000000     0.0275346  
H50      H      0.781560000000     0.606870000000     0.943030000000     0.0288185  
H51      H      0.660850000000     0.705360000000     0.988360000000     0.0498358  
H52      H      0.720260000000     0.669470000000     0.939670000000     0.0521718  
H53      H      0.768150000000     0.818480000000     0.984770000000     0.0497993  
H54      H      0.807660000000     0.758950000000     0.030640000000     0.0553093  
H55      H      0.597380000000     0.765850000000     0.987430000000     0.0228575  
H56      H      0.924760000000     0.721590000000     0.021090000000     0.0434079  
H57      H      0.761930000000     0.370090000000     0.978980000000     0.0287804  
H58      H      0.595280000000     0.189420000000     0.018230000000     0.0230739  
H59      H      0.813520000000     0.199470000000     0.000280000000     0.0507944  
H60      H      0.655520000000     0.251690000000     0.020940000000     0.0500384  
H61      H      0.700980000000     0.307890000000     0.978450000000     0.0487805  
H62      H      0.760640000000     0.154640000000     0.955750000000     0.054216   
H63      H      0.873710000000     0.262400000000     0.997920000000     0.0302543  
H64      H      0.697740000000     0.074610000000     0.892600000000     0.0382889  
H65      H      0.368900000000     0.763990000000     0.997850000000     0.0257205  
H66      H      0.090990000000     0.692720000000     0.006800000000     0.0298709  
H67      H      0.198620000000     0.812470000000     0.967340000000     0.0495847  
H68      H      0.150470000000     0.755980000000     0.010040000000     0.05169    
H69      H      0.307550000000     0.702550000000     0.997790000000     0.0497626  
H70      H      0.257670000000     0.659990000000     0.946830000000     0.0559141  
H71      H      0.260960000000     0.873700000000     0.969880000000     0.0294989  
H72      H      0.224120000000     0.544590000000     0.965030000000     0.0482721  
H73      H      0.363910000000     0.191610000000     0.966190000000     0.0245534  
H74      H      0.185560000000     0.357570000000     0.011120000000     0.0257949  
H75      H      0.194780000000     0.142410000000     0.999610000000     0.0498081  
H76      H      0.246940000000     0.295370000000     0.015960000000     0.0517988  
H77      H      0.300620000000     0.252420000000     0.965040000000     0.0499298  
H78      H      0.150550000000     0.195450000000     0.948290000000     0.0554506  
H79      H      0.258990000000     0.081680000000     0.998030000000     0.0270733  
H80      H      0.074900000000     0.260850000000     0.881950000000     0.038777   
H81      H      0.881770000000     0.998650000000     0.705440000000     0.0269468  
H82      H      0.604990000000     0.023660000000     0.781330000000     0.0241145  
H83      H      0.709030000000     0.977780000000     0.664920000000     0.0500842  
H84      H      0.667820000000     0.029340000000     0.719910000000     0.050937   
H85      H      0.821150000000     0.002450000000     0.770270000000     0.0502561  
H86      H      0.766370000000     0.951410000000     0.814010000000     0.0555984  
H87      H      0.769690000000     0.976170000000     0.601180000000     0.0243314  
H88      H      0.727050000000     0.959650000000     0.930400000000     0.0424715  
H89      H      0.200040000000     0.989220000000     0.592550000000     0.027632   
H90      H      0.268110000000     0.012820000000     0.872100000000     0.0294772  
H91      H      0.148760000000     0.978480000000     0.765250000000     0.0493413  
H92      H      0.205630000000     0.016870000000     0.811100000000     0.0504522  
H93      H      0.261120000000     0.991790000000     0.654490000000     0.0499799  
H94      H      0.302630000000     0.945790000000     0.709530000000     0.0559627  
H95      H      0.088270000000     0.980290000000     0.702230000000     0.0285564  
H96      H      0.418180000000     0.960840000000     0.743980000000     0.0461298  
H97      H      0.258210000000     0.983010000000     0.089390000000     0.0269343  
H98      H      0.190330000000     0.946060000000     0.363460000000     0.0236041  
H99      H      0.296550000000     0.901130000000     0.245320000000     0.0499825  
H100     H      0.251030000000     0.938720000000     0.301970000000     0.0502573  
H101     H      0.193790000000     0.971630000000     0.148660000000     0.0491175  
H102     H      0.140410000000     0.927200000000     0.193190000000     0.0547905  
H103     H      0.360620000000     0.917350000000     0.187030000000     0.0295778  
H104     H      0.039540000000     0.995660000000     0.249170000000     0.0445637  
H105     H      0.592580000000     0.966420000000     0.202980000000     0.0289778  
H106     H      0.871490000000     0.956360000000     0.269000000000     0.0237508  
H107     H      0.762210000000     0.994660000000     0.150150000000     0.0497782  
H108     H      0.810400000000     0.951510000000     0.206970000000     0.0498976  
H109     H      0.655350000000     0.968170000000     0.263740000000     0.0493808  
H110     H      0.707110000000     0.022150000000     0.302270000000     0.0556075  
H111     H      0.698930000000     0.990770000000     0.090100000000     0.0302812  
H112     H      0.742820000000     0.010720000000     0.418160000000     0.0395684  
H113     H      0.012140000000     0.194090000000     0.595660000000     0.0297802  
H114     H      0.981180000000     0.263410000000     0.875150000000     0.0294531  
H115     H      0.957720000000     0.148740000000     0.761870000000     0.0486148  
H116     H      0.989950000000     0.200500000000     0.816150000000     0.0494734  
H117     H      0.009300000000     0.255370000000     0.657340000000     0.050809   
H118     H      0.960060000000     0.304180000000     0.701720000000     0.0546688  
H119     H      0.964560000000     0.087600000000     0.699890000000     0.0279005  
H120     H      0.988560000000     0.414920000000     0.738390000000     0.0414998  
H121     H      0.967350000000     0.703200000000     0.883540000000     0.0286661  
H122     H      0.933420000000     0.780770000000     0.607990000000     0.0268429  
H123     H      0.977340000000     0.661880000000     0.709190000000     0.050173   
H124     H      0.927380000000     0.719990000000     0.671190000000     0.0516601  
H125     H      0.962830000000     0.767860000000     0.823180000000     0.0502192  
H126     H      0.012580000000     0.808100000000     0.765300000000     0.0567313  
H127     H      0.979340000000     0.598440000000     0.769800000000     0.0239237  
H128     H      0.005890000000     0.924450000000     0.726350000000     0.0434     
H129     H      0.987360000000     0.698450000000     0.089520000000     0.0274646  
H130     H      0.987330000000     0.766530000000     0.370100000000     0.0252     
H131     H      0.025360000000     0.652830000000     0.259000000000     0.04871    
H132     H      0.992660000000     0.704610000000     0.310780000000     0.0497767  
H133     H      0.988990000000     0.760880000000     0.149280000000     0.0481966  
H134     H      0.021110000000     0.812150000000     0.199230000000     0.0541454  
H135     H      0.017470000000     0.590800000000     0.198800000000     0.026182   
H136     H      0.955220000000     0.917120000000     0.249340000000     0.0414775  
H137     H      0.005480000000     0.190680000000     0.361800000000     0.02834    
H138     H      0.006050000000     0.262790000000     0.085330000000     0.0285939  
H139     H      0.966060000000     0.141390000000     0.194770000000     0.0501904  
H140     H      0.011180000000     0.198050000000     0.145090000000     0.0520978  
H141     H      0.002810000000     0.251320000000     0.298180000000     0.05083    
H142     H      0.941120000000     0.289900000000     0.251180000000     0.0563764  
H143     H      0.970990000000     0.080720000000     0.259230000000     0.0270583  
H144     H      0.952370000000     0.406450000000     0.217830000000     0.0404903  
N1       N      0.830810000000     0.646580000000     0.987330000000    -0.195681   
N2       N      0.645580000000     0.826760000000     0.986690000000    -0.191113   
N3       N      0.642440000000     0.134910000000     0.987190000000    -0.190365   
N4       N      0.822690000000     0.321250000000     0.988170000000    -0.185312   
N5       N      0.139480000000     0.638670000000     0.976850000000    -0.189834   
N6       N      0.319910000000     0.823710000000     0.983530000000    -0.185643   
N7       N      0.131630000000     0.313180000000     0.977850000000    -0.194447   
N8       N      0.316280000000     0.132060000000     0.982350000000    -0.190393   
N9       N      0.648700000000     0.984980000000     0.833880000000    -0.194761   
N10      N      0.830410000000     0.987250000000     0.648420000000    -0.189779   
N11      N      0.322400000000     0.979570000000     0.826010000000    -0.190495   
N12      N      0.139350000000     0.983440000000     0.642390000000    -0.185913   
N13      N      0.129050000000     0.945940000000     0.315050000000    -0.192713   
N14      N      0.314380000000     0.952170000000     0.134230000000    -0.188727   
N15      N      0.824870000000     0.989960000000     0.322640000000    -0.192379   
N16      N      0.640710000000     0.978650000000     0.141820000000    -0.186693   
N17      N      0.971290000000     0.321870000000     0.823490000000    -0.189741   
N18      N      0.988220000000     0.136150000000     0.642780000000    -0.186737   
N19      N      0.975520000000     0.830310000000     0.649650000000    -0.194258   
N20      N      0.973670000000     0.646000000000     0.831300000000    -0.190211   
N21      N      0.996900000000     0.826570000000     0.320080000000    -0.189411   
N22      N      0.000580000000     0.639480000000     0.139560000000    -0.18431    
N23      N      0.973100000000     0.314630000000     0.133980000000    -0.195075   
N24      N      0.987590000000     0.131250000000     0.315520000000    -0.190649   
O1       O      0.845940000000     0.989020000000     0.403420000000    -0.3629     
O2       O      0.905220000000     0.982900000000     0.345020000000    -0.354857   
O3       O      0.993320000000     0.116130000000     0.561680000000    -0.355389   
O4       O      0.984020000000     0.056600000000     0.619570000000    -0.349967   
O5       O      0.990500000000     0.113050000000     0.396840000000    -0.367807   
O6       O      0.982960000000     0.052400000000     0.341720000000    -0.359801   
O7       O      0.849010000000     0.983710000000     0.567230000000    -0.359799   
O8       O      0.910110000000     0.986510000000     0.622660000000    -0.353085   
O9       O      0.829230000000     0.055730000000     0.488590000000    -0.338809   
O10      O      0.809880000000     0.935470000000     0.485340000000    -0.51229    
O11      O      0.923850000000     0.139300000000     0.480500000000    -0.514625   
O12      O      0.046450000000     0.147320000000     0.476010000000    -0.32649    
O13      O      0.929600000000     0.038020000000     0.433820000000    -0.469417   
O14      O      0.931110000000     0.038560000000     0.529990000000    -0.610847   
O15      O      0.972840000000     0.847930000000     0.567980000000    -0.359856   
O16      O      0.982550000000     0.908660000000     0.622480000000    -0.357174   
O17      O      0.112850000000     0.959530000000     0.396410000000    -0.361814   
O18      O      0.052020000000     0.966190000000     0.341510000000    -0.353958   
O19      O      0.119400000000     0.980940000000     0.561250000000    -0.350624   
O20      O      0.059240000000     0.980710000000     0.619460000000    -0.349518   
O21      O      0.986380000000     0.845760000000     0.401600000000    -0.351229   
O22      O      0.985780000000     0.905750000000     0.344180000000    -0.347681   
O23      O      0.036060000000     0.815910000000     0.490040000000    -0.509462   
O24      O      0.915470000000     0.816490000000     0.482290000000    -0.339633   
O25      O      0.139770000000     0.907970000000     0.487890000000    -0.339306   
O26      O      0.153640000000     0.026890000000     0.469150000000    -0.517876   
O27      O      0.035360000000     0.923210000000     0.530290000000    -0.609858   
O28      O      0.033910000000     0.922310000000     0.434330000000    -0.464428   
O29      O      0.924960000000     0.928530000000     0.537130000000    -0.474248   
O30      O      0.040370000000     0.031750000000     0.427370000000    -0.620441   
O31      O      0.923060000000     0.926880000000     0.432710000000    -0.625555   
O32      O      0.042310000000     0.033630000000     0.531840000000    -0.475863   
O33      O      0.978120000000     0.395510000000     0.115790000000    -0.36394    
O34      O      0.977630000000     0.340300000000     0.054590000000    -0.35571    
O35      O      0.848260000000     0.565780000000     0.983330000000    -0.36225    
O36      O      0.909840000000     0.619920000000     0.990190000000    -0.356271   
O37      O      0.843000000000     0.402060000000     0.986280000000    -0.357179   
O38      O      0.902970000000     0.343970000000     0.986060000000    -0.347598   
O39      O      0.996750000000     0.558570000000     0.119900000000    -0.348276   
O40      O      0.989140000000     0.616480000000     0.060150000000    -0.348085   
O41      O      0.920450000000     0.486540000000     0.143040000000    -0.340504   
O42      O      0.041800000000     0.468440000000     0.150400000000    -0.513036   
O43      O      0.828700000000     0.484710000000     0.057780000000    -0.516287   
O44      O      0.807340000000     0.485770000000     0.936720000000    -0.326624   
O45      O      0.927280000000     0.432120000000     0.039800000000    -0.467512   
O46      O      0.929070000000     0.528610000000     0.041070000000    -0.610911   
O47      O      0.118310000000     0.557990000000     0.978510000000    -0.351461   
O48      O      0.059010000000     0.616410000000     0.980670000000    -0.349173   
O49      O      0.973000000000     0.402370000000     0.845450000000    -0.36185    
O50      O      0.975340000000     0.343950000000     0.904540000000    -0.348521   
O51      O      0.974280000000     0.565230000000     0.849810000000    -0.362556   
O52      O      0.979260000000     0.620360000000     0.910850000000    -0.354334   
O53      O      0.113910000000     0.394280000000     0.979040000000    -0.36742    
O54      O      0.052250000000     0.339950000000     0.976600000000    -0.35374    
O55      O      0.134100000000     0.475830000000     0.908430000000    -0.512705   
O56      O      0.153960000000     0.473430000000     0.029710000000    -0.329347   
O57      O      0.041810000000     0.483790000000     0.822450000000    -0.344088   
O58      O      0.918940000000     0.487200000000     0.816010000000    -0.51246    
O59      O      0.034610000000     0.527970000000     0.926010000000    -0.611895   
O60      O      0.033070000000     0.431410000000     0.924230000000    -0.467893   
O61      O      0.040580000000     0.528950000000     0.037040000000    -0.475712   
O62      O      0.921820000000     0.431910000000     0.928690000000    -0.626929   
O63      O      0.037060000000     0.425600000000     0.034990000000    -0.619723   
O64      O      0.924400000000     0.535260000000     0.930730000000    -0.471913   
O65      O      0.561130000000     0.115440000000     0.988130000000    -0.362016   
O66      O      0.618420000000     0.054990000000     0.987360000000    -0.346568   
O67      O      0.395760000000     0.958790000000     0.117290000000    -0.357742   
O68      O      0.340310000000     0.972150000000     0.056980000000    -0.352741   
O69      O      0.559670000000     0.974590000000     0.122110000000    -0.357353   
O70      O      0.617480000000     0.980810000000     0.061850000000    -0.3524     
O71      O      0.397250000000     0.112990000000     0.981100000000    -0.359156   
O72      O      0.341200000000     0.052650000000     0.985430000000    -0.357623   
O73      O      0.473380000000     0.130600000000     0.057360000000    -0.340884   
O74      O      0.481080000000     0.151750000000     0.935470000000    -0.511679   
O75      O      0.468550000000     0.041530000000     0.140150000000    -0.514912   
O76      O      0.481020000000     0.921180000000     0.157490000000    -0.325965   
O77      O      0.527050000000     0.032460000000     0.042490000000    -0.470237   
O78      O      0.429820000000     0.031440000000     0.040180000000    -0.606234   
O79      O      0.402860000000     0.982490000000     0.847450000000    -0.353286   
O80      O      0.343990000000     0.980850000000     0.906820000000    -0.348984   
O81      O      0.564590000000     0.845640000000     0.985340000000    -0.370963   
O82      O      0.620430000000     0.906140000000     0.986260000000    -0.355946   
O83      O      0.400670000000     0.843810000000     0.986450000000    -0.352591   
O84      O      0.342930000000     0.903740000000     0.980130000000    -0.34724    
O85      O      0.567060000000     0.986590000000     0.851380000000    -0.364691   
O86      O      0.621580000000     0.979970000000     0.913130000000    -0.354089   
O87      O      0.489660000000     0.919520000000     0.826390000000    -0.511387   
O88      O      0.483790000000     0.041540000000     0.815640000000    -0.330451   
O89      O      0.483260000000     0.826540000000     0.913840000000    -0.346924   
O90      O      0.483560000000     0.807460000000     0.035550000000    -0.511494   
O91      O      0.435220000000     0.926290000000     0.927800000000    -0.61366    
O92      O      0.531990000000     0.926810000000     0.929640000000    -0.466156   
O93      O      0.429430000000     0.036850000000     0.929160000000    -0.473301   
O94      O      0.531800000000     0.922230000000     0.040460000000    -0.623354   
O95      O      0.533070000000     0.037050000000     0.931180000000    -0.625163   
O96      O      0.428110000000     0.921510000000     0.038730000000    -0.473252   
S1       S      0.888610000000     0.700300000000     0.048400000000    -0.0470714  
S2       S      0.707390000000     0.071370000000     0.941440000000    -0.0397202  
S3       S      0.205740000000     0.576410000000     0.930970000000    -0.0514897  
S4       S      0.068370000000     0.251870000000     0.930830000000    -0.0386982  
S5       S      0.708740000000     0.930550000000     0.895160000000    -0.0376855  
S6       S      0.385340000000     0.929130000000     0.764020000000    -0.0536884  
S7       S      0.055940000000     0.948850000000     0.243920000000    -0.0325376  
S8       S      0.761860000000     0.041750000000     0.383700000000    -0.0441558  
S9       S      0.947420000000     0.389780000000     0.750670000000    -0.0514236  
S10      S      0.033900000000     0.887940000000     0.706820000000    -0.0425931  
S11      S      0.001280000000     0.897810000000     0.245850000000    -0.0309599  
S12      S      0.921200000000     0.374000000000     0.197960000000    -0.0478063  
Zr1      Zr     0.881960000000     0.984240000000     0.484460000000     1.29499    
Zr2      Zr     0.989530000000     0.080520000000     0.479880000000     1.29235    
Zr3      Zr     0.975930000000     0.880040000000     0.484380000000     1.28997    
Zr4      Zr     0.083410000000     0.976320000000     0.479750000000     1.29023    
Zr5      Zr     0.980730000000     0.979230000000     0.391000000000     1.27031    
Zr6      Zr     0.984000000000     0.981770000000     0.573520000000     1.26538    
Zr7      Zr     0.986400000000     0.477990000000     0.083510000000     1.29219    
Zr8      Zr     0.880290000000     0.483000000000     0.986060000000     1.29391    
Zr9      Zr     0.081600000000     0.477070000000     0.979540000000     1.29445    
Zr10     Zr     0.975550000000     0.482820000000     0.882290000000     1.29728    
Zr11     Zr     0.978730000000     0.389000000000     0.980920000000     1.2673     
Zr12     Zr     0.983270000000     0.571270000000     0.984570000000     1.26426    
Zr13     Zr     0.479430000000     0.079510000000     0.985710000000     1.29239    
Zr14     Zr     0.478000000000     0.974000000000     0.085820000000     1.29194    
Zr15     Zr     0.483780000000     0.984530000000     0.884090000000     1.29597    
Zr16     Zr     0.482290000000     0.879150000000     0.984480000000     1.29676    
Zr17     Zr     0.572200000000     0.980050000000     0.986650000000     1.27057    
Zr18     Zr     0.389250000000     0.978630000000     0.982970000000     1.26174    


