data_structure

_audit_creation_method RASPA-1.0
_audit_creation_date 2023-6-5
_audit_author_name 'Poobodin Mano'

_cell_length_a    21.4344
_cell_length_b    21.4247
_cell_length_c    21.408
_cell_angle_alpha 89.2564
_cell_angle_beta  89.2563
_cell_angle_gamma 89.2563
_cell_volume      9828.64

_symmetry_cell_setting          triclinic
_symmetry_space_group_name_Hall 'P 1'
_symmetry_space_group_name_H-M  'P 1'
_symmetry_Int_Tables_number     1

_symmetry_equiv_pos_as_xyz 'x,y,z'

loop_
_atom_site_label
_atom_site_type_symbol
_atom_site_fract_x
_atom_site_fract_y
_atom_site_fract_z
_atom_site_charge
C1       C      0.821690000000     0.994130000000     0.314710000000     0.379054   
C2       C      0.985810000000     0.133740000000     0.639960000000     0.378902   
C3       C      0.973330000000     0.137770000000     0.315330000000     0.394987   
C4       C      0.827160000000     0.983350000000     0.641670000000     0.393493   
C5       C      0.982490000000     0.824130000000     0.636320000000     0.392029   
C6       C      0.130890000000     0.971760000000     0.311760000000     0.392206   
C7       C      0.133060000000     0.982300000000     0.637890000000     0.382296   
C8       C      0.964410000000     0.829490000000     0.311590000000     0.381871   
C9       C      0.980510000000     0.319820000000     0.131080000000     0.393368   
C10      C      0.824080000000     0.645370000000     0.966530000000     0.387088   
C11      C      0.822550000000     0.319950000000     0.988340000000     0.390014   
C12      C      0.965680000000     0.644920000000     0.130360000000     0.376948   
C13      C      0.132930000000     0.643740000000     0.966620000000     0.377883   
C14      C      0.973600000000     0.316220000000     0.823690000000     0.378474   
C15      C      0.975150000000     0.643000000000     0.821520000000     0.392932   
C16      C      0.131070000000     0.318640000000     0.973570000000     0.389851   
C17      C      0.638780000000     0.137160000000     0.984470000000     0.379387   
C18      C      0.316660000000     0.970490000000     0.130360000000     0.396321   
C19      C      0.641070000000     0.980110000000     0.129750000000     0.378608   
C20      C      0.313760000000     0.134630000000     0.984990000000     0.394373   
C21      C      0.316130000000     0.995950000000     0.820580000000     0.37803    
C22      C      0.641690000000     0.829020000000     0.955130000000     0.388563   
C23      C      0.315280000000     0.827900000000     0.970000000000     0.377455   
C24      C      0.642100000000     0.997070000000     0.822580000000     0.388998   
C25      C      0.793430000000     0.752410000000     0.973410000000     0.0331289  
C26      C      0.722940000000     0.678570000000     0.936220000000     0.0387501  
C27      C      0.747320000000     0.798690000000     0.969010000000     0.0272507  
C28      C      0.677820000000     0.725410000000     0.927670000000     0.017815   
C29      C      0.670490000000     0.243570000000     0.984420000000     0.0344444  
C30      C      0.746640000000     0.164040000000     0.989600000000     0.0379859  
C31      C      0.717010000000     0.288420000000     0.985880000000     0.0297679  
C32      C      0.794300000000     0.208730000000     0.992810000000     0.0308954  
C33      C      0.208060000000     0.796860000000     0.980160000000     0.0336663  
C34      C      0.284800000000     0.723600000000     0.950280000000     0.0378827  
C35      C      0.162610000000     0.750100000000     0.978590000000     0.03231    
C36      C      0.239100000000     0.677740000000     0.943950000000     0.0209787  
C37      C      0.236490000000     0.285390000000     0.963990000000     0.0355322  
C38      C      0.159170000000     0.212270000000     0.990840000000     0.0416777  
C39      C      0.281820000000     0.238970000000     0.968160000000     0.0334398  
C40      C      0.204970000000     0.165770000000     0.999060000000     0.0274262  
C41      C      0.795220000000     0.975690000000     0.748600000000     0.0398809  
C42      C      0.724610000000     0.011300000000     0.672230000000     0.0456294  
C43      C      0.748140000000     0.980400000000     0.793930000000     0.030535   
C44      C      0.678830000000     0.020910000000     0.717880000000     0.0244443  
C45      C      0.164580000000     0.973490000000     0.745070000000     0.0373056  
C46      C      0.235900000000     0.007930000000     0.668400000000     0.0462662  
C47      C      0.210920000000     0.977990000000     0.790640000000     0.0297749  
C48      C      0.281020000000     0.017290000000     0.714260000000     0.0241785  
C49      C      0.283170000000     0.981810000000     0.235450000000     0.0381425  
C50      C      0.210430000000     0.956040000000     0.158730000000     0.0501283  
C51      C      0.236010000000     0.982200000000     0.280260000000     0.0290638  
C52      C      0.163210000000     0.952250000000     0.204290000000     0.0244945  
C53      C      0.748300000000     0.976380000000     0.161320000000     0.0346121  
C54      C      0.669800000000     0.002920000000     0.234100000000     0.042075   
C55      C      0.793230000000     0.980850000000     0.208250000000     0.0295011  
C56      C      0.714850000000     0.012160000000     0.280170000000     0.0194377  
C57      C      0.003810000000     0.237250000000     0.675190000000     0.0370555  
C58      C      0.960050000000     0.163640000000     0.744630000000     0.0433432  
C59      C      0.999610000000     0.282640000000     0.721470000000     0.0266177  
C60      C      0.950810000000     0.210380000000     0.789880000000     0.0291302  
C61      C      0.967760000000     0.749620000000     0.789690000000     0.0359565  
C62      C      0.995090000000     0.672370000000     0.716540000000     0.0396609  
C63      C      0.970680000000     0.794890000000     0.742600000000     0.0314973  
C64      C      0.002600000000     0.717810000000     0.670060000000     0.0318854  
C65      C      0.964540000000     0.799750000000     0.203390000000     0.0376025  
C66      C      0.947460000000     0.724390000000     0.281970000000     0.0415541  
C67      C      0.965740000000     0.752610000000     0.158310000000     0.0293607  
C68      C      0.942630000000     0.677880000000     0.236830000000     0.0233597  
C69      C      0.995400000000     0.214200000000     0.163850000000     0.0434183  
C70      C      0.956710000000     0.288990000000     0.234770000000     0.0435394  
C71      C      0.991720000000     0.168460000000     0.210440000000     0.0338819  
C72      C      0.949560000000     0.242980000000     0.280770000000     0.0314544  
H1       H      0.885890000000     0.078630000000     0.567560000000     0.20828    
H2       H      0.076220000000     0.076230000000     0.381110000000     0.205236   
H3       H      0.073090000000     0.880750000000     0.561840000000     0.223503   
H4       H      0.876420000000     0.890520000000     0.384070000000     0.208066   
H5       H      0.096710000000     0.177780000000     0.467450000000     0.129213   
H6       H      0.192740000000     0.088450000000     0.456620000000     0.193977   
H7       H      0.182500000000     0.874410000000     0.438690000000     0.153545   
H8       H      0.100170000000     0.792980000000     0.464930000000     0.217046   
H9       H      0.859700000000     0.784490000000     0.470860000000     0.132423   
H10      H      0.760670000000     0.879790000000     0.451920000000     0.198997   
H11      H      0.778960000000     0.088170000000     0.526460000000     0.1436     
H12      H      0.855920000000     0.170260000000     0.483860000000     0.221746   
H13      H      0.049810000000     0.738990000000     0.442760000000     0.227834   
H14      H      0.725330000000     0.924040000000     0.506020000000     0.223677   
H15      H      0.905200000000     0.222410000000     0.511910000000     0.223534   
H16      H      0.238490000000     0.027080000000     0.474650000000     0.215049   
H17      H      0.880650000000     0.570830000000     0.072440000000     0.217417   
H18      H      0.878440000000     0.388160000000     0.883110000000     0.218323   
H19      H      0.071120000000     0.568850000000     0.876490000000     0.221369   
H20      H      0.075800000000     0.388530000000     0.071800000000     0.21007    
H21      H      0.772490000000     0.481850000000     0.868800000000     0.133302   
H22      H      0.857550000000     0.472940000000     0.769600000000     0.195122   
H23      H      0.077080000000     0.439240000000     0.772840000000     0.151145   
H24      H      0.159960000000     0.480750000000     0.844420000000     0.216042   
H25      H      0.177390000000     0.478980000000     0.086170000000     0.131398   
H26      H      0.089770000000     0.512320000000     0.186580000000     0.205961   
H27      H      0.865530000000     0.447870000000     0.163300000000     0.15364    
H28      H      0.765440000000     0.529890000000     0.081590000000     0.210022   
H29      H      0.217050000000     0.455470000000     0.891090000000     0.227361   
H30      H      0.049440000000     0.457180000000     0.225000000000     0.222139   
H31      H      0.766480000000     0.452030000000     0.088810000000     0.212303   
H32      H      0.916140000000     0.489030000000     0.719720000000     0.215774   
H33      H      0.387910000000     0.068930000000     0.078470000000     0.217081   
H34      H      0.573070000000     0.876660000000     0.065270000000     0.203927   
H35      H      0.391240000000     0.894620000000     0.873330000000     0.207858   
H36      H      0.570560000000     0.087020000000     0.886100000000     0.218806   
H37      H      0.475790000000     0.847540000000     0.160760000000     0.134153   
H38      H      0.460180000000     0.723650000000     0.021960000000     0.225973   
H39      H      0.476500000000     0.815330000000     0.841570000000     0.148387   
H40      H      0.520760000000     0.905240000000     0.748400000000     0.225271   
H41      H      0.475680000000     0.118760000000     0.797170000000     0.138901   
H42      H      0.488060000000     0.206360000000     0.880030000000     0.200491   
H43      H      0.514150000000     0.165090000000     0.097930000000     0.153435   
H44      H      0.456370000000     0.083180000000     0.182250000000     0.205544   
H45      H      0.442790000000     0.904390000000     0.748820000000     0.214433   
H46      H      0.466140000000     0.245590000000     0.943940000000     0.21279    
H47      H      0.486020000000     0.028700000000     0.230470000000     0.217561   
H48      H      0.510300000000     0.758410000000     0.069230000000     0.197489   
H49      H      0.759080000000     0.845000000000     0.984560000000     0.0421664  
H50      H      0.838630000000     0.765380000000     0.990960000000     0.0408867  
H51      H      0.712540000000     0.631810000000     0.920980000000     0.0529423  
H52      H      0.663860000000     0.661520000000     0.804060000000     0.155066   
H53      H      0.701420000000     0.336730000000     0.983720000000     0.0460316  
H54      H      0.622560000000     0.260060000000     0.981430000000     0.0401881  
H55      H      0.759420000000     0.115030000000     0.991880000000     0.0577931  
H56      H      0.910270000000     0.087720000000     0.032290000000     0.170418   
H57      H      0.115330000000     0.763080000000     0.992160000000     0.0453715  
H58      H      0.193390000000     0.843410000000     0.993790000000     0.0526882  
H59      H      0.332510000000     0.711680000000     0.937390000000     0.0524757  
H60      H      0.317070000000     0.653680000000     0.826610000000     0.158199   
H61      H      0.329250000000     0.252350000000     0.956570000000     0.0415197  
H62      H      0.251380000000     0.331940000000     0.950620000000     0.0411036  
H63      H      0.111020000000     0.201080000000     0.001660000000     0.0624528  
H64      H      0.103040000000     0.070180000000     0.098780000000     0.169131   
H65      H      0.759560000000     0.965570000000     0.841090000000     0.0471202  
H66      H      0.840850000000     0.958730000000     0.762770000000     0.0429237  
H67      H      0.714300000000     0.025720000000     0.624690000000     0.0505015  
H68      H      0.595820000000     0.136560000000     0.621990000000     0.170706   
H69      H      0.198600000000     0.963640000000     0.837910000000     0.0509822  
H70      H      0.118970000000     0.957090000000     0.759710000000     0.0453828  
H71      H      0.247040000000     0.021540000000     0.620650000000     0.0534167  
H72      H      0.366340000000     0.127950000000     0.614670000000     0.168524   
H73      H      0.249080000000     0.994880000000     0.327160000000     0.0385294  
H74      H      0.329800000000     0.993450000000     0.250160000000     0.0400983  
H75      H      0.199700000000     0.944020000000     0.111060000000     0.06194    
H76      H      0.068280000000     0.852060000000     0.107580000000     0.157713   
H77      H      0.841160000000     0.969710000000     0.195400000000     0.0483792  
H78      H      0.763930000000     0.963220000000     0.114900000000     0.0431905  
H79      H      0.621480000000     0.013600000000     0.245660000000     0.0468897  
H80      H      0.632130000000     0.126130000000     0.302730000000     0.156953   
H81      H      0.018150000000     0.328300000000     0.709960000000     0.0423721  
H82      H      0.023960000000     0.250720000000     0.630370000000     0.0445665  
H83      H      0.941650000000     0.117540000000     0.754380000000     0.0552967  
H84      H      0.811450000000     0.135980000000     0.852890000000     0.164979   
H85      H      0.958540000000     0.842430000000     0.755210000000     0.0442844  
H86      H      0.954730000000     0.764270000000     0.836430000000     0.04263    
H87      H      0.006710000000     0.624400000000     0.705180000000     0.0589028  
H88      H      0.105640000000     0.617580000000     0.576310000000     0.165257   
H89      H      0.974420000000     0.766640000000     0.110180000000     0.0405118  
H90      H      0.970240000000     0.847540000000     0.187560000000     0.0501658  
H91      H      0.938790000000     0.711430000000     0.330380000000     0.05672    
H92      H      0.847720000000     0.579560000000     0.340650000000     0.169325   
H93      H      0.008210000000     0.121900000000     0.198820000000     0.053182   
H94      H      0.013440000000     0.200940000000     0.118270000000     0.0577699  
H95      H      0.940810000000     0.336020000000     0.245180000000     0.0581388  
H96      H      0.836550000000     0.336480000000     0.370030000000     0.165563   
N1       N      0.780280000000     0.691950000000     0.959430000000    -0.174268   
N2       N      0.688460000000     0.784830000000     0.949260000000    -0.165582   
N3       N      0.685070000000     0.181290000000     0.985950000000    -0.170733   
N4       N      0.779190000000     0.272220000000     0.989710000000    -0.160743   
N5       N      0.269520000000     0.783180000000     0.967500000000    -0.169604   
N6       N      0.177890000000     0.689810000000     0.962430000000    -0.161155   
N7       N      0.175220000000     0.272030000000     0.975020000000    -0.173792   
N8       N      0.266720000000     0.178900000000     0.984850000000    -0.165417   
N9       N      0.782540000000     0.989040000000     0.687500000000    -0.176984   
N10      N      0.689090000000     0.000440000000     0.778390000000    -0.163324   
N11      N      0.177590000000     0.986960000000     0.683600000000    -0.171098   
N12      N      0.270030000000     0.997980000000     0.775510000000    -0.161543   
N13      N      0.270170000000     0.969760000000     0.174600000000    -0.171786   
N14      N      0.175680000000     0.968420000000     0.265230000000    -0.165896   
N15      N      0.686280000000     0.985600000000     0.174710000000    -0.171944   
N16      N      0.776830000000     0.996600000000     0.268470000000    -0.161174   
N17      N      0.984560000000     0.177500000000     0.686770000000    -0.171126   
N18      N      0.974220000000     0.269650000000     0.779370000000    -0.161942   
N19      N      0.978380000000     0.688280000000     0.776110000000    -0.173905   
N20      N      0.985970000000     0.779050000000     0.682300000000    -0.167019   
N21      N      0.959230000000     0.785130000000     0.265680000000    -0.16779    
N22      N      0.957720000000     0.690960000000     0.174890000000    -0.161941   
N23      N      0.978400000000     0.274420000000     0.176400000000    -0.172175   
N24      N      0.970630000000     0.182890000000     0.269410000000    -0.165497   
O1       O      0.803460000000     0.992030000000     0.372750000000    -0.331923   
O2       O      0.880120000000     0.990750000000     0.298110000000    -0.335715   
O3       O      0.992760000000     0.153490000000     0.582720000000    -0.349901   
O4       O      0.977850000000     0.075390000000     0.654900000000    -0.341157   
O5       O      0.975930000000     0.155530000000     0.372740000000    -0.340142   
O6       O      0.975700000000     0.079950000000     0.298690000000    -0.345338   
O7       O      0.808500000000     0.984840000000     0.584440000000    -0.371017   
O8       O      0.885060000000     0.979200000000     0.657490000000    -0.351127   
O9       O      0.775810000000     0.071560000000     0.483710000000    -0.302579   
O10      O      0.760730000000     0.915630000000     0.478860000000    -0.512982   
O11      O      0.898020000000     0.182610000000     0.492720000000    -0.510481   
O12      O      0.054760000000     0.197520000000     0.470180000000    -0.311488   
O13      O      0.909140000000     0.055750000000     0.415360000000    -0.453244   
O14      O      0.910320000000     0.052470000000     0.539860000000    -0.615634   
O15      O      0.977840000000     0.806450000000     0.579080000000    -0.340009   
O16      O      0.982310000000     0.882030000000     0.652780000000    -0.351416   
O17      O      0.149830000000     0.973180000000     0.368880000000    -0.367478   
O18      O      0.072780000000     0.975750000000     0.296720000000    -0.336253   
O19      O      0.151360000000     0.985640000000     0.579790000000    -0.344816   
O20      O      0.075100000000     0.976490000000     0.654710000000    -0.341595   
O21      O      0.963680000000     0.810210000000     0.369320000000    -0.354429   
O22      O      0.969960000000     0.887880000000     0.295610000000    -0.329737   
O23      O      0.057730000000     0.779920000000     0.459110000000    -0.504491   
O24      O      0.901030000000     0.765550000000     0.479940000000    -0.306314   
O25      O      0.178490000000     0.890310000000     0.481790000000    -0.336988   
O26      O      0.197470000000     0.044680000000     0.467200000000    -0.513546   
O27      O      0.047090000000     0.907400000000     0.536040000000    -0.614801   
O28      O      0.046500000000     0.909990000000     0.411810000000    -0.463344   
O29      O      0.905200000000     0.911100000000     0.543910000000    -0.472509   
O30      O      0.050340000000     0.051150000000     0.408610000000    -0.621782   
O31      O      0.903800000000     0.913920000000     0.410240000000    -0.631378   
O32      O      0.052260000000     0.049560000000     0.542980000000    -0.473927   
O33      O      0.978700000000     0.377260000000     0.148990000000    -0.363149   
O34      O      0.982750000000     0.303170000000     0.073280000000    -0.339222   
O35      O      0.805410000000     0.588090000000     0.964330000000    -0.356327   
O36      O      0.881550000000     0.660920000000     0.974100000000    -0.349808   
O37      O      0.802510000000     0.377360000000     0.983740000000    -0.352888   
O38      O      0.881120000000     0.305880000000     0.988860000000    -0.328243   
O39      O      0.970410000000     0.587380000000     0.149220000000    -0.336908   
O40      O      0.969370000000     0.661020000000     0.071670000000    -0.343375   
O41      O      0.898720000000     0.471780000000     0.183530000000    -0.301746   
O42      O      0.054820000000     0.484300000000     0.188960000000    -0.517064   
O43      O      0.779710000000     0.489540000000     0.067160000000    -0.517226   
O44      O      0.755860000000     0.479390000000     0.912120000000    -0.317394   
O45      O      0.908160000000     0.420110000000     0.049100000000    -0.4687     
O46      O      0.907140000000     0.544200000000     0.047170000000    -0.613608   
O47      O      0.151420000000     0.585920000000     0.968550000000    -0.33399    
O48      O      0.074310000000     0.660100000000     0.970330000000    -0.341009   
O49      O      0.975090000000     0.373890000000     0.804000000000    -0.356122   
O50      O      0.973820000000     0.300820000000     0.882500000000    -0.323075   
O51      O      0.974620000000     0.585500000000     0.803660000000    -0.355916   
O52      O      0.974780000000     0.659800000000     0.879290000000    -0.350685   
O53      O      0.150180000000     0.375730000000     0.973190000000    -0.358834   
O54      O      0.072950000000     0.303220000000     0.974850000000    -0.346834   
O55      O      0.175310000000     0.472150000000     0.885890000000    -0.504963   
O56      O      0.195770000000     0.480370000000     0.043500000000    -0.310596   
O57      O      0.056930000000     0.480970000000     0.769440000000    -0.331388   
O58      O      0.901230000000     0.480970000000     0.761810000000    -0.515158   
O59      O      0.045740000000     0.542690000000     0.903390000000    -0.613669   
O60      O      0.047110000000     0.418140000000     0.904840000000    -0.469977   
O61      O      0.050390000000     0.549020000000     0.045950000000    -0.479323   
O62      O      0.904440000000     0.414950000000     0.907360000000    -0.63055    
O63      O      0.049540000000     0.415300000000     0.046370000000    -0.624889   
O64      O      0.905000000000     0.548720000000     0.905710000000    -0.469817   
O65      O      0.581100000000     0.156460000000     0.984470000000    -0.358687   
O66      O      0.654910000000     0.078610000000     0.982680000000    -0.342411   
O67      O      0.373680000000     0.969650000000     0.149420000000    -0.358465   
O68      O      0.301080000000     0.972720000000     0.072210000000    -0.338054   
O69      O      0.583170000000     0.978640000000     0.148230000000    -0.351177   
O70      O      0.657910000000     0.978050000000     0.071370000000    -0.344561   
O71      O      0.370860000000     0.153930000000     0.984120000000    -0.354392   
O72      O      0.299190000000     0.076500000000     0.982950000000    -0.334499   
O73      O      0.472730000000     0.171470000000     0.078750000000    -0.339723   
O74      O      0.476730000000     0.206650000000     0.923860000000    -0.513235   
O75      O      0.472660000000     0.041450000000     0.189250000000    -0.508406   
O76      O      0.482530000000     0.886490000000     0.183990000000    -0.329544   
O77      O      0.539710000000     0.046350000000     0.051400000000    -0.46806    
O78      O      0.415080000000     0.045230000000     0.051020000000    -0.611165   
O79      O      0.373880000000     0.999180000000     0.802350000000    -0.339464   
O80      O      0.300040000000     0.987960000000     0.878920000000    -0.335144   
O81      O      0.584570000000     0.810250000000     0.955950000000    -0.341871   
O82      O      0.657080000000     0.886580000000     0.963380000000    -0.350983   
O83      O      0.373260000000     0.809260000000     0.968190000000    -0.34943    
O84      O      0.298720000000     0.886210000000     0.973100000000    -0.339214   
O85      O      0.584920000000     0.998420000000     0.803830000000    -0.344107   
O86      O      0.657390000000     0.990330000000     0.880550000000    -0.348999   
O87      O      0.481270000000     0.920660000000     0.764620000000    -0.511268   
O88      O      0.477960000000     0.080590000000     0.771620000000    -0.286633   
O89      O      0.470680000000     0.786920000000     0.877930000000    -0.304932   
O90      O      0.484060000000     0.759780000000     0.032860000000    -0.51282    
O91      O      0.417610000000     0.917860000000     0.900660000000    -0.62146    
O92      O      0.541540000000     0.918050000000     0.900630000000    -0.462782   
O93      O      0.410390000000     0.059710000000     0.910170000000    -0.470627   
O94      O      0.545600000000     0.904040000000     0.041830000000    -0.624518   
O95      O      0.544150000000     0.059110000000     0.909990000000    -0.627126   
O96      O      0.411620000000     0.904280000000     0.043080000000    -0.47476    
O97      O      0.596480000000     0.766500000000     0.833140000000    -0.167576   
O98      O      0.632500000000     0.645350000000     0.834340000000    -0.263579   
O99      O      0.552710000000     0.687890000000     0.923810000000    -0.151506   
O100     O      0.889630000000     0.203280000000     0.078660000000    -0.160703   
O101     O      0.870310000000     0.099560000000     0.012370000000    -0.271507   
O102     O      0.924330000000     0.201210000000     0.955240000000    -0.111316   
O103     O      0.208010000000     0.594650000000     0.849410000000    -0.179319   
O104     O      0.329100000000     0.624490000000     0.860770000000    -0.262779   
O105     O      0.274390000000     0.550760000000     0.948650000000    -0.155116   
O106     O      0.230080000000     0.085340000000     0.098710000000    -0.173221   
O107     O      0.109270000000     0.107110000000     0.071190000000    -0.278005   
O108     O      0.180840000000     0.036430000000     0.993470000000    -0.157563   
O109     O      0.598900000000     0.119240000000     0.752600000000    -0.177048   
O110     O      0.633890000000     0.111730000000     0.631550000000    -0.273979   
O111     O      0.553940000000     0.026150000000     0.680090000000    -0.150683   
O112     O      0.407780000000     0.020140000000     0.678970000000    -0.152139   
O113     O      0.328530000000     0.103320000000     0.624200000000    -0.278066   
O114     O      0.357170000000     0.116970000000     0.745370000000    -0.161067   
O115     O      0.034160000000     0.959290000000     0.179740000000    -0.167494   
O116     O      0.105670000000     0.878030000000     0.112910000000    -0.276416   
O117     O      0.085110000000     0.855410000000     0.235810000000    -0.166129   
O118     O      0.741490000000     0.108370000000     0.363250000000    -0.144555   
O119     O      0.621300000000     0.091900000000     0.332320000000    -0.26892    
O120     O      0.678960000000     0.006950000000     0.407200000000    -0.153347   
O121     O      0.854150000000     0.258750000000     0.865580000000    -0.173427   
O122     O      0.840990000000     0.144860000000     0.818020000000    -0.27292    
O123     O      0.924720000000     0.158790000000     0.911320000000    -0.126559   
O124     O      0.096240000000     0.748110000000     0.582730000000    -0.180021   
O125     O      0.083850000000     0.627170000000     0.616180000000    -0.271604   
O126     O      0.995500000000     0.682920000000     0.544120000000    -0.163986   
O127     O      0.957810000000     0.551690000000     0.272640000000    -0.161021   
O128     O      0.867200000000     0.620120000000     0.330290000000    -0.274805   
O129     O      0.853130000000     0.588630000000     0.209890000000    -0.174854   
O130     O      0.949490000000     0.279140000000     0.406400000000    -0.165895   
O131     O      0.859970000000     0.327840000000     0.330840000000    -0.270245   
O132     O      0.855270000000     0.206440000000     0.365130000000    -0.155951   
S1       S      0.613850000000     0.706540000000     0.879690000000     0.288986   
S2       S      0.870480000000     0.178140000000     0.008900000000     0.283511   
S3       S      0.262440000000     0.610880000000     0.900740000000     0.284338   
S4       S      0.181290000000     0.097330000000     0.040390000000     0.290062   
S5       S      0.614980000000     0.069610000000     0.695730000000     0.289603   
S6       S      0.344980000000     0.064470000000     0.690880000000     0.289758   
S7       S      0.095510000000     0.911530000000     0.183030000000     0.282611   
S8       S      0.689370000000     0.054790000000     0.346720000000     0.288574   
S9       S      0.893110000000     0.193930000000     0.847940000000     0.277578   
S10      S      0.044510000000     0.694180000000     0.601940000000     0.285381   
S11      S      0.905390000000     0.608220000000     0.262250000000     0.290335   
S12      S      0.903490000000     0.263910000000     0.347090000000     0.284765   
Zr1      Zr     0.849180000000     0.983940000000     0.477980000000     1.30908    
Zr2      Zr     0.983600000000     0.110080000000     0.477520000000     1.31032    
Zr3      Zr     0.972560000000     0.852790000000     0.474500000000     1.31339    
Zr4      Zr     0.106970000000     0.979330000000     0.474440000000     1.29637    
Zr5      Zr     0.976700000000     0.983110000000     0.357820000000     1.27306    
Zr6      Zr     0.979330000000     0.979130000000     0.594080000000     1.26451    
Zr7      Zr     0.981120000000     0.482380000000     0.104990000000     1.31088    
Zr8      Zr     0.848050000000     0.482360000000     0.977110000000     1.29917    
Zr9      Zr     0.106090000000     0.481070000000     0.974950000000     1.31013    
Zr10     Zr     0.973120000000     0.480240000000     0.847390000000     1.29927    
Zr11     Zr     0.977400000000     0.363860000000     0.977530000000     1.28476    
Zr12     Zr     0.977130000000     0.599740000000     0.975450000000     1.2588     
Zr13     Zr     0.476670000000     0.110510000000     0.983500000000     1.30127    
Zr14     Zr     0.478320000000     0.968570000000     0.104460000000     1.30048    
Zr15     Zr     0.478800000000     0.995740000000     0.847640000000     1.3169     
Zr16     Zr     0.479100000000     0.853080000000     0.968920000000     1.30398    
Zr17     Zr     0.596190000000     0.982020000000     0.975870000000     1.26611    
Zr18     Zr     0.360400000000     0.981230000000     0.975920000000     1.27285    


