data_structure

_audit_creation_method RASPA-1.0
_audit_creation_date 2023-5-23
_audit_author_name 'Poobodin Mano'

_cell_length_a    27.0095
_cell_length_b    27.0178
_cell_length_c    27.0247
_cell_angle_alpha 89.2564
_cell_angle_beta  89.2563
_cell_angle_gamma 89.2563
_cell_volume      19716

_symmetry_cell_setting          triclinic
_symmetry_space_group_name_Hall 'P 1'
_symmetry_space_group_name_H-M  'P 1'
_symmetry_Int_Tables_number     1

_symmetry_equiv_pos_as_xyz 'x,y,z'

loop_
_atom_site_label
_atom_site_type_symbol
_atom_site_fract_x
_atom_site_fract_y
_atom_site_fract_z
_atom_site_charge
C1       C      0.858860000000     0.982120000000     0.355840000000     0.374905   
C2       C      0.983940000000     0.104260000000     0.611050000000     0.375307   
C3       C      0.977110000000     0.102660000000     0.353780000000     0.386089   
C4       C      0.862000000000     0.976500000000     0.613270000000     0.388701   
C5       C      0.980620000000     0.860160000000     0.612560000000     0.387335   
C6       C      0.102950000000     0.978390000000     0.353060000000     0.387426   
C7       C      0.105920000000     0.983970000000     0.610430000000     0.376491   
C8       C      0.984260000000     0.858470000000     0.355160000000     0.37354    
C9       C      0.976560000000     0.351910000000     0.104380000000     0.387438   
C10      C      0.861920000000     0.611380000000     0.978310000000     0.387696   
C11      C      0.858760000000     0.353980000000     0.983830000000     0.373939   
C12      C      0.983790000000     0.609260000000     0.106040000000     0.376499   
C13      C      0.105880000000     0.608530000000     0.985940000000     0.375725   
C14      C      0.984330000000     0.353270000000     0.860360000000     0.374621   
C15      C      0.980500000000     0.610770000000     0.862050000000     0.388645   
C16      C      0.102940000000     0.351150000000     0.980750000000     0.386426   
C17      C      0.609740000000     0.104720000000     0.983610000000     0.374961   
C18      C      0.352450000000     0.976090000000     0.103720000000     0.387454   
C19      C      0.609770000000     0.981810000000     0.106660000000     0.373752   
C20      C      0.352380000000     0.101730000000     0.977730000000     0.388951   
C21      C      0.355040000000     0.983810000000     0.859630000000     0.375405   
C22      C      0.612660000000     0.860870000000     0.980350000000     0.387811   
C23      C      0.355010000000     0.857720000000     0.985890000000     0.376672   
C24      C      0.612670000000     0.978850000000     0.862700000000     0.386538   
C25      C      0.702300000000     0.837140000000     0.977720000000    -0.023639   
C26      C      0.774410000000     0.638630000000     0.972370000000    -0.0244456  
C27      C      0.838290000000     0.701040000000     0.976810000000    -0.0235577  
C28      C      0.788480000000     0.724480000000     0.974610000000     0.0127049  
C29      C      0.752270000000     0.688670000000     0.972200000000     0.0150941  
C30      C      0.702010000000     0.700950000000     0.971540000000    -0.0682181  
C31      C      0.639710000000     0.773320000000     0.974440000000    -0.0241015  
C32      C      0.776170000000     0.774960000000     0.976180000000    -0.0662627  
C33      C      0.689770000000     0.751180000000     0.973110000000     0.0145824  
C34      C      0.725660000000     0.787320000000     0.975190000000     0.0126977  
C35      C      0.770270000000     0.327910000000     0.983530000000    -0.0260656  
C36      C      0.699300000000     0.128910000000     0.985530000000    -0.0254256  
C37      C      0.635730000000     0.193220000000     0.983190000000    -0.0254362  
C38      C      0.685750000000     0.215460000000     0.983950000000     0.0133368  
C39      C      0.722150000000     0.178900000000     0.985250000000     0.0125714  
C40      C      0.772690000000     0.190920000000     0.985950000000    -0.0658832  
C41      C      0.834630000000     0.264370000000     0.985650000000    -0.0253532  
C42      C      0.697680000000     0.265870000000     0.983340000000    -0.0669247  
C43      C      0.784660000000     0.241480000000     0.985330000000     0.0123727  
C44      C      0.748080000000     0.277850000000     0.984100000000     0.0138153  
C45      C      0.265420000000     0.833570000000     0.984420000000    -0.025143   
C46      C      0.194250000000     0.634630000000     0.989360000000    -0.0258827  
C47      C      0.130030000000     0.698150000000     0.984490000000    -0.025292   
C48      C      0.179970000000     0.721040000000     0.985740000000     0.0126892  
C49      C      0.216470000000     0.684690000000     0.988550000000     0.0142883  
C50      C      0.266840000000     0.696660000000     0.990060000000    -0.0668145  
C51      C      0.328860000000     0.769280000000     0.989500000000    -0.0258722  
C52      C      0.192000000000     0.771590000000     0.984220000000    -0.0656499  
C53      C      0.278830000000     0.747060000000     0.988610000000     0.0142942  
C54      C      0.242510000000     0.783600000000     0.985740000000     0.012782   
C55      C      0.126690000000     0.261580000000     0.978420000000    -0.0238042  
C56      C      0.325350000000     0.189450000000     0.973120000000    -0.0243864  
C57      C      0.262740000000     0.125490000000     0.976500000000    -0.0235945  
C58      C      0.239400000000     0.175410000000     0.975090000000     0.0130684  
C59      C      0.275320000000     0.211630000000     0.973320000000     0.0151672  
C60      C      0.263120000000     0.261910000000     0.973300000000    -0.0681793  
C61      C      0.190710000000     0.324160000000     0.976400000000    -0.0246709  
C62      C      0.188870000000     0.187710000000     0.976560000000    -0.0662088  
C63      C      0.212840000000     0.274150000000     0.974830000000     0.0151032  
C64      C      0.176590000000     0.238250000000     0.976220000000     0.0127785  
C65      C      0.639750000000     0.973480000000     0.775150000000    -0.0245264  
C66      C      0.838360000000     0.975110000000     0.702910000000    -0.0234134  
C67      C      0.774470000000     0.970850000000     0.640510000000    -0.0243793  
C68      C      0.752320000000     0.970840000000     0.690540000000     0.0151599  
C69      C      0.788520000000     0.973130000000     0.726350000000     0.0128641  
C70      C      0.776210000000     0.974760000000     0.776820000000    -0.0661912  
C71      C      0.702320000000     0.976480000000     0.838980000000    -0.0236679  
C72      C      0.702050000000     0.970400000000     0.702800000000    -0.0682185  
C73      C      0.725700000000     0.973980000000     0.789170000000     0.0126369  
C74      C      0.689800000000     0.972030000000     0.753020000000     0.015062   
C75      C      0.328880000000     0.987420000000     0.771210000000    -0.0259937  
C76      C      0.130060000000     0.982440000000     0.700030000000    -0.0251585  
C77      C      0.194300000000     0.987220000000     0.636550000000    -0.0258496  
C78      C      0.216510000000     0.986440000000     0.686600000000     0.0142933  
C79      C      0.180000000000     0.983680000000     0.722940000000     0.0128131  
C80      C      0.192010000000     0.982190000000     0.773480000000    -0.0656136  
C81      C      0.265430000000     0.982400000000     0.835480000000    -0.0252874  
C82      C      0.266880000000     0.987940000000     0.698590000000    -0.0668381  
C83      C      0.242530000000     0.983690000000     0.785510000000     0.0126131  
C84      C      0.278850000000     0.986510000000     0.748980000000     0.0143074  
C85      C      0.126740000000     0.975920000000     0.263530000000    -0.0238576  
C86      C      0.325420000000     0.971360000000     0.191420000000    -0.0244468  
C87      C      0.262810000000     0.974790000000     0.127480000000    -0.0237716  
C88      C      0.239470000000     0.973160000000     0.177380000000     0.0129165  
C89      C      0.275390000000     0.971340000000     0.213600000000     0.0150545  
C90      C      0.263180000000     0.971040000000     0.263870000000    -0.0681556  
C91      C      0.190740000000     0.973670000000     0.326110000000    -0.0240893  
C92      C      0.188930000000     0.974460000000     0.189690000000    -0.0663222  
C93      C      0.212890000000     0.972360000000     0.276110000000     0.0144837  
C94      C      0.176650000000     0.973850000000     0.240210000000     0.0129247  
C95      C      0.770360000000     0.981940000000     0.329780000000    -0.0255281  
C96      C      0.699350000000     0.983670000000     0.130810000000    -0.0254355  
C97      C      0.635800000000     0.981390000000     0.195130000000    -0.0260986  
C98      C      0.685830000000     0.982190000000     0.217350000000     0.0138574  
C99      C      0.722210000000     0.983460000000     0.180800000000     0.0123738  
C100     C      0.772760000000     0.984180000000     0.192810000000    -0.0658201  
C101     C      0.834710000000     0.983970000000     0.266250000000    -0.0253073  
C102     C      0.697760000000     0.981660000000     0.267760000000    -0.0670095  
C103     C      0.784740000000     0.983630000000     0.243360000000     0.0124579  
C104     C      0.748160000000     0.982440000000     0.279730000000     0.0134007  
C105     C      0.984780000000     0.263550000000     0.836330000000    -0.0253654  
C106     C      0.985650000000     0.192600000000     0.637340000000    -0.025952   
C107     C      0.983880000000     0.128180000000     0.700780000000    -0.0253561  
C108     C      0.984640000000     0.178130000000     0.723740000000     0.0125946  
C109     C      0.985580000000     0.214720000000     0.687400000000     0.0141348  
C110     C      0.986140000000     0.265100000000     0.699390000000    -0.0669131  
C111     C      0.986010000000     0.327060000000     0.771970000000    -0.0255938  
C112     C      0.984380000000     0.190090000000     0.774320000000    -0.0656875  
C113     C      0.985830000000     0.277020000000     0.749790000000     0.0135451  
C114     C      0.985050000000     0.240640000000     0.786350000000     0.0125062  
C115     C      0.980740000000     0.700310000000     0.838100000000    -0.0234359  
C116     C      0.975490000000     0.772520000000     0.639640000000    -0.0245918  
C117     C      0.980820000000     0.836260000000     0.702080000000    -0.0235657  
C118     C      0.978670000000     0.786440000000     0.725460000000     0.0127577  
C119     C      0.975610000000     0.750320000000     0.689660000000     0.0152995  
C120     C      0.974010000000     0.700090000000     0.701960000000    -0.0681813  
C121     C      0.975400000000     0.637810000000     0.774420000000    -0.0244157  
C122     C      0.980340000000     0.774110000000     0.775910000000    -0.0661645  
C123     C      0.975560000000     0.687830000000     0.752190000000     0.0152174  
C124     C      0.978640000000     0.723660000000     0.788280000000     0.0129485  
C125     C      0.985750000000     0.770080000000     0.328900000000    -0.0261569  
C126     C      0.983700000000     0.699000000000     0.130000000000    -0.0252409  
C127     C      0.985350000000     0.635500000000     0.194370000000    -0.0259306  
C128     C      0.985320000000     0.685570000000     0.216520000000     0.0142973  
C129     C      0.984460000000     0.721940000000     0.179960000000     0.0126736  
C130     C      0.984240000000     0.772520000000     0.191960000000    -0.0655419  
C131     C      0.984640000000     0.834500000000     0.265440000000    -0.0254433  
C132     C      0.985860000000     0.697520000000     0.266890000000    -0.0669846  
C133     C      0.984870000000     0.784510000000     0.242500000000     0.0123744  
C134     C      0.985590000000     0.747920000000     0.278850000000     0.0141767  
C135     C      0.971830000000     0.325220000000     0.192240000000    -0.0241234  
C136     C      0.973190000000     0.126600000000     0.264390000000    -0.0238166  
C137     C      0.972580000000     0.190520000000     0.327010000000    -0.0246007  
C138     C      0.970870000000     0.212740000000     0.277040000000     0.0147115  
C139     C      0.971280000000     0.176510000000     0.241130000000     0.0127248  
C140     C      0.971440000000     0.188780000000     0.190620000000    -0.0664559  
C141     C      0.972560000000     0.262520000000     0.128390000000    -0.0237325  
C142     C      0.970550000000     0.263030000000     0.264780000000    -0.068147   
C143     C      0.970950000000     0.239290000000     0.178310000000     0.0128337  
C144     C      0.970510000000     0.275240000000     0.214500000000     0.0143171  
H1       H      0.905340000000     0.056860000000     0.554260000000     0.209251   
H2       H      0.057480000000     0.058390000000     0.407140000000     0.201946   
H3       H      0.059960000000     0.905580000000     0.553320000000     0.208823   
H4       H      0.906080000000     0.903870000000     0.411170000000     0.204201   
H5       H      0.069300000000     0.141670000000     0.473180000000     0.124259   
H6       H      0.148550000000     0.073910000000     0.473120000000     0.184471   
H7       H      0.136310000000     0.894590000000     0.455580000000     0.147257   
H8       H      0.065990000000     0.811570000000     0.516450000000     0.198006   
H9       H      0.896020000000     0.820240000000     0.482890000000     0.125264   
H10      H      0.814400000000     0.890320000000     0.481870000000     0.184665   
H11      H      0.828120000000     0.067560000000     0.455550000000     0.147645   
H12      H      0.899810000000     0.151910000000     0.516460000000     0.198692   
H13      H      0.071410000000     0.816890000000     0.454870000000     0.201573   
H14      H      0.776550000000     0.939490000000     0.488070000000     0.201757   
H15      H      0.893680000000     0.146750000000     0.455250000000     0.202217   
H16      H      0.187510000000     0.025510000000     0.478630000000     0.202527   
H17      H      0.905590000000     0.552370000000     0.058990000000     0.208769   
H18      H      0.905780000000     0.409300000000     0.905950000000     0.204117   
H19      H      0.059580000000     0.551540000000     0.907110000000     0.209315   
H20      H      0.057640000000     0.405260000000     0.059970000000     0.20199    
H21      H      0.822700000000     0.481540000000     0.894060000000     0.125334   
H22      H      0.894220000000     0.479670000000     0.813710000000     0.184785   
H23      H      0.071140000000     0.452420000000     0.830700000000     0.147689   
H24      H      0.154570000000     0.513290000000     0.903540000000     0.198814   
H25      H      0.140990000000     0.470940000000     0.072940000000     0.124408   
H26      H      0.071830000000     0.471640000000     0.151040000000     0.184481   
H27      H      0.892840000000     0.454760000000     0.135710000000     0.147302   
H28      H      0.811220000000     0.516010000000     0.063530000000     0.197902   
H29      H      0.149250000000     0.452050000000     0.897630000000     0.202261   
H30      H      0.022750000000     0.477920000000     0.189030000000     0.202428   
H31      H      0.816250000000     0.454450000000     0.069490000000     0.201644   
H32      H      0.944090000000     0.485120000000     0.776690000000     0.201747   
H33      H      0.409470000000     0.056280000000     0.057690000000     0.208944   
H34      H      0.556570000000     0.904040000000     0.060850000000     0.203132   
H35      H      0.414180000000     0.904780000000     0.907280000000     0.209092   
H36      H      0.556510000000     0.058530000000     0.905550000000     0.202868   
H37      H      0.485950000000     0.891530000000     0.144720000000     0.124772   
H38      H      0.488220000000     0.813650000000     0.076900000000     0.184437   
H39      H      0.511400000000     0.830700000000     0.896000000000     0.147048   
H40      H      0.453060000000     0.901980000000     0.812500000000     0.19798    
H41      H      0.488370000000     0.071750000000     0.822920000000     0.124697   
H42      H      0.487960000000     0.150790000000     0.891010000000     0.18456    
H43      H      0.507260000000     0.134700000000     0.067940000000     0.14749    
H44      H      0.445030000000     0.060770000000     0.152350000000     0.198626   
H45      H      0.514530000000     0.896590000000     0.817740000000     0.201553   
H46      H      0.478020000000     0.187670000000     0.939550000000     0.201874   
H47      H      0.506400000000     0.067200000000     0.147150000000     0.202065   
H48      H      0.486590000000     0.775430000000     0.028690000000     0.202692   
H49      H      0.857640000000     0.710880000000     0.011310000000     0.0441     
H50      H      0.760870000000     0.616330000000     0.004540000000     0.0419746  
H51      H      0.673850000000     0.672840000000     0.970420000000     0.0441511  
H52      H      0.804270000000     0.803010000000     0.978550000000     0.0431108  
H53      H      0.712740000000     0.856530000000     0.012000000000     0.0436805  
H54      H      0.619080000000     0.764770000000     0.940330000000     0.0429997  
H55      H      0.861590000000     0.712210000000     0.944450000000     0.0451878  
H56      H      0.765850000000     0.618860000000     0.937750000000     0.0477224  
H57      H      0.618190000000     0.759790000000     0.007140000000     0.0415446  
H58      H      0.712930000000     0.860370000000     0.945140000000     0.0449657  
H59      H      0.615530000000     0.204490000000     0.949200000000     0.0407956  
H60      H      0.711510000000     0.107310000000     0.952750000000     0.0435346  
H61      H      0.801210000000     0.162420000000     0.986880000000     0.0431178  
H62      H      0.669160000000     0.294380000000     0.982280000000     0.0437069  
H63      H      0.759820000000     0.349100000000     0.949640000000     0.0449659  
H64      H      0.855150000000     0.253630000000     0.019600000000     0.0454428  
H65      H      0.613260000000     0.204560000000     0.015980000000     0.0430239  
H66      H      0.709110000000     0.107560000000     0.019520000000     0.0457179  
H67      H      0.857070000000     0.253110000000     0.952820000000     0.0435167  
H68      H      0.758090000000     0.349370000000     0.016420000000     0.0438418  
H69      H      0.110350000000     0.708470000000     0.949920000000     0.0436375  
H70      H      0.207430000000     0.612530000000     0.957260000000     0.0414322  
H71      H      0.295310000000     0.668160000000     0.992180000000     0.0442968  
H72      H      0.163550000000     0.800070000000     0.981910000000     0.0433032  
H73      H      0.256010000000     0.854070000000     0.949820000000     0.0438455  
H74      H      0.348430000000     0.759100000000     0.024170000000     0.0447349  
H75      H      0.106810000000     0.709830000000     0.016630000000     0.0464444  
H76      H      0.203640000000     0.614090000000     0.023950000000     0.0482873  
H77      H      0.351880000000     0.756870000000     0.957490000000     0.0449617  
H78      H      0.252870000000     0.856010000000     0.016510000000     0.0460671  
H79      H      0.252370000000     0.103560000000     0.943790000000     0.0453943  
H80      H      0.346040000000     0.199440000000     0.938670000000     0.0435364  
H81      H      0.291300000000     0.290060000000     0.972570000000     0.0442407  
H82      H      0.160710000000     0.159570000000     0.978290000000     0.0434306  
H83      H      0.104560000000     0.251980000000     0.945590000000     0.045302   
H84      H      0.202950000000     0.344440000000     0.009520000000     0.0461354  
H85      H      0.252000000000     0.104750000000     0.010680000000     0.0446786  
H86      H      0.346840000000     0.201600000000     0.005520000000     0.0452573  
H87      H      0.200650000000     0.346020000000     0.942660000000     0.0424288  
H88      H      0.106120000000     0.250110000000     0.012470000000     0.0439477  
H89      H      0.761040000000     0.003040000000     0.618160000000     0.045091   
H90      H      0.857850000000     0.009550000000     0.712720000000     0.0444414  
H91      H      0.804320000000     0.977000000000     0.804860000000     0.0431312  
H92      H      0.673890000000     0.969350000000     0.674700000000     0.0441808  
H93      H      0.618350000000     0.006310000000     0.761720000000     0.0461418  
H94      H      0.712910000000     0.943850000000     0.862180000000     0.0449134  
H95      H      0.765790000000     0.936230000000     0.620790000000     0.0434862  
H96      H      0.861530000000     0.942660000000     0.714100000000     0.0450066  
H97      H      0.712800000000     0.010730000000     0.858400000000     0.0438102  
H98      H      0.618990000000     0.939470000000     0.766470000000     0.0420812  
H99      H      0.207460000000     0.955090000000     0.614490000000     0.0449386  
H100     H      0.110350000000     0.947890000000     0.710370000000     0.0438995  
H101     H      0.163550000000     0.979910000000     0.801950000000     0.0432922  
H102     H      0.295350000000     0.990030000000     0.670100000000     0.0442624  
H103     H      0.351900000000     0.955390000000     0.758840000000     0.0413224  
H104     H      0.252880000000     0.014510000000     0.857880000000     0.0462107  
H105     H      0.203720000000     0.021800000000     0.615980000000     0.0446808  
H106     H      0.106860000000     0.014620000000     0.711680000000     0.0463412  
H107     H      0.256020000000     0.947800000000     0.855990000000     0.043577   
H108     H      0.348450000000     0.022080000000     0.761000000000     0.0482727  
H109     H      0.252020000000     0.009040000000     0.106870000000     0.0443216  
H110     H      0.346800000000     0.003810000000     0.203630000000     0.041791   
H111     H      0.291350000000     0.970260000000     0.292010000000     0.0441115  
H112     H      0.160780000000     0.976250000000     0.161550000000     0.0434313  
H113     H      0.106120000000     0.009980000000     0.252140000000     0.0438721  
H114     H      0.200640000000     0.939800000000     0.347790000000     0.0426685  
H115     H      0.252490000000     0.942140000000     0.105430000000     0.0455812  
H116     H      0.346220000000     0.936940000000     0.201330000000     0.047795   
H117     H      0.203000000000     0.006670000000     0.346590000000     0.0414745  
H118     H      0.104670000000     0.943080000000     0.253840000000     0.0453315  
H119     H      0.613310000000     0.014190000000     0.206430000000     0.0438865  
H120     H      0.709170000000     0.017640000000     0.109430000000     0.0456803  
H121     H      0.801280000000     0.985070000000     0.164310000000     0.043095   
H122     H      0.669250000000     0.980630000000     0.296250000000     0.0437416  
H123     H      0.758200000000     0.014880000000     0.351190000000     0.0431001  
H124     H      0.857160000000     0.951120000000     0.255020000000     0.0434608  
H125     H      0.615620000000     0.947400000000     0.206430000000     0.0450223  
H126     H      0.711570000000     0.950860000000     0.109260000000     0.0435389  
H127     H      0.855230000000     0.017910000000     0.255480000000     0.0454479  
H128     H      0.759890000000     0.948080000000     0.351020000000     0.0407104  
H129     H      0.949980000000     0.107750000000     0.711910000000     0.0436118  
H130     H      0.952690000000     0.205030000000     0.616090000000     0.0410578  
H131     H      0.986730000000     0.293620000000     0.670890000000     0.0438349  
H132     H      0.983630000000     0.161580000000     0.802810000000     0.0432551  
H133     H      0.951140000000     0.253180000000     0.857990000000     0.043325   
H134     H      0.019790000000     0.347620000000     0.760680000000     0.0432767  
H135     H      0.016800000000     0.105630000000     0.711590000000     0.0464471  
H136     H      0.019510000000     0.202850000000     0.615960000000     0.0484564  
H137     H      0.952970000000     0.349150000000     0.760610000000     0.04076    
H138     H      0.017970000000     0.251930000000     0.857640000000     0.0456157  
H139     H      0.015600000000     0.855380000000     0.711460000000     0.0439768  
H140     H      0.007560000000     0.759010000000     0.617170000000     0.0423555  
H141     H      0.972020000000     0.671990000000     0.673890000000     0.0443937  
H142     H      0.983130000000     0.802170000000     0.803940000000     0.0431449  
H143     H      0.015500000000     0.709700000000     0.857240000000     0.0442531  
H144     H      0.940640000000     0.618220000000     0.765920000000     0.0436847  
H145     H      0.948740000000     0.859720000000     0.713730000000     0.0453583  
H146     H      0.940740000000     0.764010000000     0.620040000000     0.0477036  
H147     H      0.007450000000     0.615300000000     0.760930000000     0.0450432  
H148     H      0.948640000000     0.711990000000     0.861520000000     0.045239   
H149     H      0.952360000000     0.614300000000     0.206760000000     0.0448701  
H150     H      0.949840000000     0.710190000000     0.109560000000     0.0439139  
H151     H      0.983540000000     0.801040000000     0.163460000000     0.0432172  
H152     H      0.986390000000     0.669000000000     0.295390000000     0.0441803  
H153     H      0.952660000000     0.758740000000     0.350930000000     0.045384   
H154     H      0.017860000000     0.855790000000     0.253860000000     0.0455918  
H155     H      0.019170000000     0.614070000000     0.204640000000     0.0446504  
H156     H      0.016650000000     0.709790000000     0.107490000000     0.0462775  
H157     H      0.951030000000     0.856200000000     0.255070000000     0.0434778  
H158     H      0.019490000000     0.758720000000     0.349480000000     0.0438471  
H159     H      0.939040000000     0.200700000000     0.349080000000     0.042458   
H160     H      0.939920000000     0.104900000000     0.255240000000     0.0449563  
H161     H      0.972410000000     0.160610000000     0.162490000000     0.0432966  
H162     H      0.970870000000     0.291190000000     0.292910000000     0.0438963  
H163     H      0.938140000000     0.347060000000     0.202450000000     0.0424284  
H164     H      0.006150000000     0.250640000000     0.107270000000     0.04417    
H165     H      0.005950000000     0.202450000000     0.347120000000     0.0457664  
H166     H      0.006840000000     0.105620000000     0.252420000000     0.0441462  
H167     H      0.939220000000     0.253230000000     0.106860000000     0.0449026  
H168     H      0.005070000000     0.345590000000     0.204090000000     0.0415021  
N1       N      0.649270000000     0.826330000000     0.977660000000    -0.16566    
N2       N      0.827440000000     0.648070000000     0.975810000000    -0.164947   
N3       N      0.823820000000     0.317850000000     0.984410000000    -0.161134   
N4       N      0.645830000000     0.139680000000     0.984150000000    -0.161588   
N5       N      0.318850000000     0.822800000000     0.986700000000    -0.160288   
N6       N      0.140780000000     0.644680000000     0.986690000000    -0.160767   
N7       N      0.137550000000     0.314570000000     0.978770000000    -0.165272   
N8       N      0.315770000000     0.136310000000     0.975680000000    -0.164439   
N9       N      0.649290000000     0.976500000000     0.828160000000    -0.165297   
N10      N      0.827520000000     0.974110000000     0.649950000000    -0.164473   
N11      N      0.318860000000     0.984680000000     0.824720000000    -0.160734   
N12      N      0.140820000000     0.984610000000     0.646580000000    -0.160152   
N13      N      0.137590000000     0.976130000000     0.316520000000    -0.165634   
N14      N      0.315840000000     0.974000000000     0.138300000000    -0.164862   
N15      N      0.823910000000     0.982790000000     0.319720000000    -0.16158    
N16      N      0.645890000000     0.982290000000     0.141590000000    -0.161057   
N17      N      0.985220000000     0.317030000000     0.825520000000    -0.16145    
N18      N      0.984510000000     0.139050000000     0.647310000000    -0.160654   
N19      N      0.978950000000     0.647340000000     0.827410000000    -0.1644     
N20      N      0.979050000000     0.825530000000     0.649130000000    -0.164898   
N21      N      0.985030000000     0.823640000000     0.318910000000    -0.160922   
N22      N      0.984260000000     0.645510000000     0.140840000000    -0.16015    
N23      N      0.973610000000     0.315510000000     0.139110000000    -0.16565    
N24      N      0.974410000000     0.137380000000     0.317350000000    -0.165228   
O1       O      0.843510000000     0.980900000000     0.401510000000    -0.362739   
O2       O      0.905100000000     0.982450000000     0.342510000000    -0.348964   
O3       O      0.984980000000     0.119820000000     0.565440000000    -0.356471   
O4       O      0.982370000000     0.058000000000     0.624170000000    -0.348203   
O5       O      0.978480000000     0.118230000000     0.398790000000    -0.365548   
O6       O      0.978180000000     0.056720000000     0.341220000000    -0.356134   
O7       O      0.846310000000     0.975000000000     0.568310000000    -0.35921    
O8       O      0.907850000000     0.980060000000     0.625530000000    -0.355469   
O9       O      0.823580000000     0.050170000000     0.487730000000    -0.341962   
O10      O      0.809600000000     0.925660000000     0.484930000000    -0.512211   
O11      O      0.911190000000     0.138530000000     0.485270000000    -0.512779   
O12      O      0.035560000000     0.155690000000     0.478090000000    -0.327776   
O13      O      0.925480000000     0.037160000000     0.433850000000    -0.469408   
O14      O      0.925900000000     0.036740000000     0.532760000000    -0.609932   
O15      O      0.978860000000     0.844650000000     0.567540000000    -0.363312   
O16      O      0.983660000000     0.905990000000     0.625000000000    -0.355594   
O17      O      0.118670000000     0.979470000000     0.398030000000    -0.368965   
O18      O      0.056960000000     0.979340000000     0.340670000000    -0.356913   
O19      O      0.121260000000     0.985720000000     0.564760000000    -0.351503   
O20      O      0.059750000000     0.981570000000     0.623740000000    -0.348138   
O21      O      0.983790000000     0.842910000000     0.400770000000    -0.358332   
O22      O      0.983700000000     0.904770000000     0.342040000000    -0.348339   
O23      O      0.054240000000     0.824980000000     0.485360000000    -0.513778   
O24      O      0.930150000000     0.806540000000     0.484510000000    -0.327692   
O25      O      0.143040000000     0.914160000000     0.485420000000    -0.340605   
O26      O      0.154130000000     0.038680000000     0.476960000000    -0.513435   
O27      O      0.039270000000     0.925840000000     0.532080000000    -0.610425   
O28      O      0.039180000000     0.925960000000     0.433250000000    -0.469439   
O29      O      0.927140000000     0.924580000000     0.537450000000    -0.472656   
O30      O      0.037590000000     0.038070000000     0.429120000000    -0.619816   
O31      O      0.926180000000     0.924200000000     0.431880000000    -0.62666    
O32      O      0.038980000000     0.038960000000     0.534960000000    -0.477037   
O33      O      0.977870000000     0.396940000000     0.119910000000    -0.369103   
O34      O      0.977940000000     0.339300000000     0.058480000000    -0.356613   
O35      O      0.846220000000     0.566420000000     0.976770000000    -0.363713   
O36      O      0.907750000000     0.623650000000     0.981990000000    -0.355785   
O37      O      0.843400000000     0.399670000000     0.982580000000    -0.358391   
O38      O      0.904990000000     0.340650000000     0.984270000000    -0.348609   
O39      O      0.984760000000     0.563640000000     0.121580000000    -0.351798   
O40      O      0.982350000000     0.622390000000     0.059790000000    -0.34799    
O41      O      0.912210000000     0.484750000000     0.142390000000    -0.340809   
O42      O      0.036530000000     0.475830000000     0.155930000000    -0.51326    
O43      O      0.824740000000     0.484780000000     0.052250000000    -0.513824   
O44      O      0.808430000000     0.483320000000     0.927930000000    -0.327799   
O45      O      0.925670000000     0.432010000000     0.039230000000    -0.469431   
O46      O      0.926090000000     0.530880000000     0.038800000000    -0.610308   
O47      O      0.121220000000     0.562860000000     0.987750000000    -0.356477   
O48      O      0.059730000000     0.621850000000     0.983390000000    -0.348538   
O49      O      0.983900000000     0.398900000000     0.844830000000    -0.362782   
O50      O      0.983640000000     0.340130000000     0.906640000000    -0.348841   
O51      O      0.978770000000     0.565750000000     0.846550000000    -0.359003   
O52      O      0.983480000000     0.623230000000     0.907870000000    -0.355327   
O53      O      0.118680000000     0.396120000000     0.981890000000    -0.36572    
O54      O      0.056930000000     0.338790000000     0.981350000000    -0.35654    
O55      O      0.140850000000     0.482210000000     0.914830000000    -0.512734   
O56      O      0.155660000000     0.475460000000     0.039450000000    -0.327867   
O57      O      0.053960000000     0.484650000000     0.825650000000    -0.34184    
O58      O      0.929660000000     0.482390000000     0.809510000000    -0.512286   
O59      O      0.038970000000     0.530270000000     0.927430000000    -0.610005   
O60      O      0.038870000000     0.431350000000     0.927540000000    -0.469434   
O61      O      0.039230000000     0.533100000000     0.040470000000    -0.477067   
O62      O      0.925890000000     0.430020000000     0.926270000000    -0.62669    
O63      O      0.037780000000     0.427240000000     0.039620000000    -0.619867   
O64      O      0.926820000000     0.535610000000     0.926680000000    -0.47269    
O65      O      0.564080000000     0.120080000000     0.981980000000    -0.362837   
O66      O      0.623090000000     0.058500000000     0.984510000000    -0.349527   
O67      O      0.397480000000     0.974820000000     0.119440000000    -0.363618   
O68      O      0.340080000000     0.979150000000     0.057780000000    -0.355434   
O69      O      0.564110000000     0.980210000000     0.122030000000    -0.358398   
O70      O      0.623080000000     0.982740000000     0.060430000000    -0.348983   
O71      O      0.397400000000     0.117460000000     0.976470000000    -0.359354   
O72      O      0.340010000000     0.055790000000     0.980800000000    -0.355394   
O73      O      0.475340000000     0.138880000000     0.050670000000    -0.341489   
O74      O      0.482620000000     0.154920000000     0.926150000000    -0.512279   
O75      O      0.476630000000     0.049730000000     0.139100000000    -0.512949   
O76      O      0.482340000000     0.925310000000     0.158210000000    -0.327596   
O77      O      0.530490000000     0.037500000000     0.038990000000    -0.471511   
O78      O      0.431540000000     0.036160000000     0.037700000000    -0.607011   
O79      O      0.400670000000     0.985940000000     0.844280000000    -0.356692   
O80      O      0.341790000000     0.980790000000     0.905810000000    -0.348353   
O81      O      0.567640000000     0.845140000000     0.981130000000    -0.368545   
O82      O      0.625040000000     0.906790000000     0.981920000000    -0.356434   
O83      O      0.400650000000     0.842370000000     0.987990000000    -0.35182    
O84      O      0.341760000000     0.903900000000     0.982940000000    -0.348431   
O85      O      0.567650000000     0.979670000000     0.846960000000    -0.365546   
O86      O      0.625020000000     0.980100000000     0.908640000000    -0.355778   
O87      O      0.483790000000     0.913450000000     0.825920000000    -0.51372    
O88      O      0.486320000000     0.038200000000     0.808840000000    -0.328259   
O89      O      0.482590000000     0.821560000000     0.917050000000    -0.340295   
O90      O      0.486710000000     0.808600000000     0.041620000000    -0.51388    
O91      O      0.434830000000     0.925090000000     0.927460000000    -0.613761   
O92      O      0.533500000000     0.926100000000     0.928450000000    -0.467342   
O93      O      0.429310000000     0.038120000000     0.925480000000    -0.474857   
O94      O      0.535170000000     0.924420000000     0.040450000000    -0.623356   
O95      O      0.535130000000     0.038130000000     0.925970000000    -0.623224   
O96      O      0.429300000000     0.923970000000     0.040480000000    -0.475056   
Zr1      Zr     0.880160000000     0.979310000000     0.484450000000     1.29454    
Zr2      Zr     0.982340000000     0.083740000000     0.482420000000     1.2942     
Zr3      Zr     0.982590000000     0.879110000000     0.483880000000     1.29497    
Zr4      Zr     0.084740000000     0.983630000000     0.481880000000     1.29353    
Zr5      Zr     0.981620000000     0.981070000000     0.389750000000     1.26669    
Zr6      Zr     0.983260000000     0.981710000000     0.576460000000     1.26296    
Zr7      Zr     0.982810000000     0.480570000000     0.085520000000     1.29365    
Zr8      Zr     0.880100000000     0.482580000000     0.981580000000     1.29512    
Zr9      Zr     0.084710000000     0.479990000000     0.984920000000     1.29443    
Zr10     Zr     0.982080000000     0.482040000000     0.880970000000     1.29467    
Zr11     Zr     0.981550000000     0.387860000000     0.982900000000     1.26675    
Zr12     Zr     0.983200000000     0.574620000000     0.983550000000     1.26292    
Zr13     Zr     0.481170000000     0.083460000000     0.980390000000     1.2935     
Zr14     Zr     0.481210000000     0.979210000000     0.085390000000     1.29424    
Zr15     Zr     0.483660000000     0.983150000000     0.880790000000     1.29497    
Zr16     Zr     0.483650000000     0.878850000000     0.985880000000     1.29493    
Zr17     Zr     0.575860000000     0.982010000000     0.983910000000     1.26689    
Zr18     Zr     0.389080000000     0.980350000000     0.982290000000     1.26307    


