data_structure

_audit_creation_method RASPA-1.0
_audit_creation_date 2023-5-19
_audit_author_name 'Poobodin Mano'

_cell_length_a    20.9959
_cell_length_b    20.9963
_cell_length_c    20.9964
_cell_angle_alpha 90
_cell_angle_beta  90
_cell_angle_gamma 90
_cell_volume      9255.97

_symmetry_cell_setting          triclinic
_symmetry_space_group_name_Hall 'P 1'
_symmetry_space_group_name_H-M  'P 1'
_symmetry_Int_Tables_number     1

_symmetry_equiv_pos_as_xyz 'x,y,z'

loop_
_atom_site_label
_atom_site_type_symbol
_atom_site_fract_x
_atom_site_fract_y
_atom_site_fract_z
_atom_site_charge
C1       C      0.003710000000     0.162570000000     0.162530000000     0.447891   
C2       C      0.019620000000     0.858370000000     0.163270000000     0.45304    
C3       C      0.857360000000     0.016000000000     0.163690000000     0.451691   
C4       C      0.161780000000     0.008200000000     0.162310000000     0.450226   
C5       C      0.005790000000     0.858110000000     0.857930000000     0.441731   
C6       C      0.019360000000     0.163500000000     0.858410000000     0.453318   
C7       C      0.857370000000     0.857920000000     0.006360000000     0.441871   
C8       C      0.162700000000     0.858520000000     0.020140000000     0.453478   
C9       C      0.161650000000     0.162780000000     0.004650000000     0.448344   
C10      C      0.857510000000     0.163290000000     0.020330000000     0.453158   
C11      C      0.857370000000     0.009980000000     0.857910000000     0.442892   
C12      C      0.162840000000     0.016730000000     0.858200000000     0.45415    
C13      C      0.003710000000     0.358120000000     0.358070000000     0.449101   
C14      C      0.019380000000     0.662240000000     0.357150000000     0.45387    
C15      C      0.857490000000     0.500330000000     0.357320000000     0.455399   
C16      C      0.161610000000     0.516010000000     0.357870000000     0.451406   
C17      C      0.005790000000     0.662710000000     0.662530000000     0.442733   
C18      C      0.019600000000     0.357380000000     0.662280000000     0.454872   
C19      C      0.857360000000     0.662760000000     0.510660000000     0.444803   
C20      C      0.162800000000     0.662420000000     0.503900000000     0.456854   
C21      C      0.161790000000     0.358320000000     0.512440000000     0.453276   
C22      C      0.857380000000     0.356990000000     0.504630000000     0.454113   
C23      C      0.857370000000     0.514290000000     0.662690000000     0.444715   
C24      C      0.162740000000     0.500510000000     0.662130000000     0.456872   
C25      C      0.661630000000     0.007120000000     0.358310000000     0.450421   
C26      C      0.357300000000     0.017270000000     0.356970000000     0.452419   
C27      C      0.515640000000     0.858250000000     0.357230000000     0.456167   
C28      C      0.505530000000     0.162600000000     0.358020000000     0.450638   
C29      C      0.357290000000     0.008950000000     0.662620000000     0.44381    
C30      C      0.662700000000     0.017570000000     0.662350000000     0.453741   
C31      C      0.357260000000     0.858000000000     0.511680000000     0.44508    
C32      C      0.357310000000     0.163660000000     0.503370000000     0.454709   
C33      C      0.661660000000     0.162370000000     0.513510000000     0.452678   
C34      C      0.662690000000     0.858320000000     0.503080000000     0.454914   
C35      C      0.506970000000     0.858010000000     0.662620000000     0.444365   
C36      C      0.515600000000     0.163430000000     0.662410000000     0.457396   
C37      C      0.357300000000     0.358280000000     0.004520000000     0.448981   
C38      C      0.661490000000     0.357200000000     0.020440000000     0.454703   
C39      C      0.504540000000     0.357240000000     0.858150000000     0.456417   
C40      C      0.512340000000     0.358060000000     0.162560000000     0.451061   
C41      C      0.662100000000     0.662500000000     0.006480000000     0.443229   
C42      C      0.356690000000     0.662420000000     0.020030000000     0.453748   
C43      C      0.662110000000     0.514150000000     0.858110000000     0.444582   
C44      C      0.661480000000     0.500210000000     0.163420000000     0.45707    
C45      C      0.357260000000     0.516120000000     0.162380000000     0.451185   
C46      C      0.356730000000     0.500590000000     0.858240000000     0.45509    
C47      C      0.511310000000     0.662680000000     0.857940000000     0.444546   
C48      C      0.504580000000     0.662520000000     0.163400000000     0.457528   
C49      C      0.507670000000     0.196040000000     0.243070000000    -0.00100137 
C50      C      0.506480000000     0.212620000000     0.307990000000    -0.110301   
C51      C      0.507610000000     0.277530000000     0.324560000000    -0.000831661
C52      C      0.509930000000     0.324600000000     0.277500000000    -0.000791153
C53      C      0.511140000000     0.308020000000     0.212580000000    -0.110315   
C54      C      0.510000000000     0.243110000000     0.196000000000    -0.000860838
C55      C      0.510750000000     0.743450000000     0.324650000000     0.00150309 
C56      C      0.514200000000     0.808160000000     0.307590000000    -0.103177   
C57      C      0.513710000000     0.824490000000     0.242670000000     0.00297206 
C58      C      0.509780000000     0.777310000000     0.195970000000     0.00234867 
C59      C      0.506300000000     0.712620000000     0.213030000000    -0.104362   
C60      C      0.506810000000     0.696270000000     0.277950000000     0.00349146 
C61      C      0.509690000000     0.696060000000     0.743060000000     0.00120005 
C62      C      0.510580000000     0.712660000000     0.807960000000    -0.0999088  
C63      C      0.509910000000     0.777560000000     0.824560000000     0.00159956 
C64      C      0.508350000000     0.824620000000     0.777500000000     0.00146955 
C65      C      0.507480000000     0.808020000000     0.712600000000    -0.0996994  
C66      C      0.508130000000     0.743120000000     0.696000000000     0.00109525 
C67      C      0.511000000000     0.196000000000     0.777220000000     0.00229258 
C68      C      0.514130000000     0.213060000000     0.712500000000    -0.104348   
C69      C      0.513330000000     0.277970000000     0.696160000000     0.00351308 
C70      C      0.509390000000     0.324670000000     0.743350000000     0.00156844 
C71      C      0.506240000000     0.307600000000     0.808060000000    -0.10328    
C72      C      0.507060000000     0.242690000000     0.824410000000     0.00301696 
C73      C      0.823710000000     0.242220000000     0.505950000000     0.000865946
C74      C      0.807290000000     0.307160000000     0.505420000000    -0.102507   
C75      C      0.742480000000     0.323990000000     0.507750000000    -0.000196125
C76      C      0.695320000000     0.277110000000     0.510840000000     0.0020668  
C77      C      0.711750000000     0.212180000000     0.511640000000    -0.110521   
C78      C      0.776560000000     0.195350000000     0.509060000000     0.00175999 
C79      C      0.824350000000     0.777620000000     0.506320000000     0.000388877
C80      C      0.807540000000     0.712800000000     0.508570000000    -0.0994114  
C81      C      0.742630000000     0.696320000000     0.507690000000     0.000393988
C82      C      0.695730000000     0.743450000000     0.505000000000     0.00275104 
C83      C      0.712530000000     0.808280000000     0.503150000000    -0.103416   
C84      C      0.777450000000     0.824750000000     0.503610000000     0.00410934 
C85      C      0.195320000000     0.243580000000     0.509290000000     0.00134361 
C86      C      0.211810000000     0.308490000000     0.510280000000    -0.111397   
C87      C      0.276630000000     0.325300000000     0.507780000000     0.000974153
C88      C      0.323730000000     0.278400000000     0.504590000000     0.000372479
C89      C      0.307250000000     0.213490000000     0.503920000000    -0.103989   
C90      C      0.242430000000     0.196690000000     0.506130000000    -0.000747809
C91      C      0.277490000000     0.696020000000     0.504710000000     0.00432282 
C92      C      0.212580000000     0.712470000000     0.504220000000    -0.104718   
C93      C      0.195720000000     0.777280000000     0.506130000000     0.00346194 
C94      C      0.242570000000     0.824430000000     0.508890000000     0.000282222
C95      C      0.307480000000     0.807970000000     0.509770000000    -0.0992981  
C96      C      0.324350000000     0.743170000000     0.507490000000    -0.000200695
C97      C      0.823650000000     0.495310000000     0.242810000000     0.00254118 
C98      C      0.807360000000     0.496930000000     0.307740000000    -0.103197   
C99      C      0.742560000000     0.496950000000     0.324760000000     0.000877609
C100     C      0.695240000000     0.496890000000     0.278010000000     0.00305006 
C101     C      0.711540000000     0.496840000000     0.213060000000    -0.104456   
C102     C      0.776320000000     0.495290000000     0.196060000000     0.00198957 
C103     C      0.276580000000     0.517930000000     0.324410000000    -0.000305238
C104     C      0.211650000000     0.517720000000     0.307840000000    -0.109677   
C105     C      0.195130000000     0.518340000000     0.242900000000    -0.000684777
C106     C      0.242250000000     0.518380000000     0.195810000000    -0.000712973
C107     C      0.307190000000     0.517800000000     0.212380000000    -0.109681   
C108     C      0.323710000000     0.517970000000     0.277330000000    -0.000430068
C109     C      0.277370000000     0.497090000000     0.695940000000     0.00332962 
C110     C      0.212420000000     0.497220000000     0.712210000000    -0.103992   
C111     C      0.195420000000     0.495880000000     0.777020000000     0.00204484 
C112     C      0.242180000000     0.495890000000     0.824350000000     0.00265645 
C113     C      0.307130000000     0.497290000000     0.808080000000    -0.102764   
C114     C      0.324140000000     0.497140000000     0.743270000000     0.00112429 
C115     C      0.742510000000     0.515600000000     0.696130000000     0.00123161 
C116     C      0.807420000000     0.515690000000     0.712700000000    -0.0999032  
C117     C      0.824050000000     0.516410000000     0.777600000000     0.00162381 
C118     C      0.776990000000     0.516360000000     0.824700000000     0.00143356 
C119     C      0.712080000000     0.515600000000     0.808120000000    -0.0996764  
C120     C      0.695460000000     0.515560000000     0.743220000000     0.00118771 
C121     C      0.742510000000     0.824470000000     0.004900000000     0.000410512
C122     C      0.807430000000     0.807910000000     0.004950000000    -0.0992181  
C123     C      0.824050000000     0.743010000000     0.004370000000     0.00037207 
C124     C      0.776990000000     0.695910000000     0.004410000000     0.00110077 
C125     C      0.712080000000     0.712480000000     0.005040000000    -0.100815   
C126     C      0.695460000000     0.777380000000     0.004950000000     0.0011961  
C127     C      0.823660000000     0.277800000000     0.025160000000     0.00208369 
C128     C      0.807380000000     0.212870000000     0.023720000000    -0.103296   
C129     C      0.742570000000     0.195850000000     0.023880000000     0.000312309
C130     C      0.695250000000     0.242610000000     0.023940000000     0.00232664 
C131     C      0.711550000000     0.307550000000     0.023810000000    -0.104455   
C132     C      0.776340000000     0.324560000000     0.025190000000     0.0013587  
C133     C      0.195370000000     0.743640000000     0.024740000000     0.000826623
C134     C      0.212360000000     0.808440000000     0.023420000000    -0.103107   
C135     C      0.277320000000     0.824720000000     0.023560000000     0.00241119 
C136     C      0.324090000000     0.777380000000     0.023500000000     0.0012369  
C137     C      0.307080000000     0.712570000000     0.023340000000    -0.10382    
C138     C      0.242140000000     0.696300000000     0.024720000000     0.00238752 
C139     C      0.195170000000     0.277750000000     0.002140000000    -0.0014305  
C140     C      0.211700000000     0.212810000000     0.002930000000    -0.109449   
C141     C      0.276630000000     0.196240000000     0.002890000000    -0.00112724 
C142     C      0.323750000000     0.243330000000     0.002850000000    -0.00103143 
C143     C      0.307230000000     0.308270000000     0.002840000000    -0.109925   
C144     C      0.242300000000     0.324840000000     0.002090000000    -0.00118557 
C145     C      0.742630000000     0.012930000000     0.824360000000    -0.000287165
C146     C      0.807540000000     0.012090000000     0.807880000000    -0.0990405  
C147     C      0.824360000000     0.014360000000     0.743060000000    -0.000635508
C148     C      0.777450000000     0.017080000000     0.695930000000     0.00366612 
C149     C      0.712540000000     0.017500000000     0.712400000000    -0.104391   
C150     C      0.695730000000     0.015620000000     0.777230000000     0.00267792 
C151     C      0.277530000000     0.015870000000     0.824600000000     0.00343503 
C152     C      0.212620000000     0.016410000000     0.808150000000    -0.103993   
C153     C      0.195750000000     0.014550000000     0.743340000000     0.00228795 
C154     C      0.242610000000     0.011790000000     0.696190000000    -5.13472e-05
C155     C      0.307510000000     0.010860000000     0.712650000000    -0.100438   
C156     C      0.324380000000     0.013090000000     0.777450000000    -8.65546e-05
C157     C      0.195320000000     0.011340000000     0.277040000000     0.000743373
C158     C      0.211800000000     0.010350000000     0.212140000000    -0.111283   
C159     C      0.276620000000     0.012880000000     0.195330000000     0.000290121
C160     C      0.323730000000     0.016070000000     0.242220000000    -0.000320903
C161     C      0.307250000000     0.016730000000     0.307130000000    -0.104076   
C162     C      0.242430000000     0.014500000000     0.323940000000    -0.00129779 
C163     C      0.823690000000     0.014680000000     0.278450000000     0.000235663
C164     C      0.807260000000     0.015220000000     0.213520000000    -0.102454   
C165     C      0.742450000000     0.012900000000     0.196690000000    -0.00081982 
C166     C      0.695290000000     0.009810000000     0.243560000000     0.0013371  
C167     C      0.711720000000     0.008990000000     0.308490000000    -0.110658   
C168     C      0.776530000000     0.011560000000     0.325330000000     0.00123301 
C169     C      0.023940000000     0.278050000000     0.824540000000     0.00220011 
C170     C      0.022720000000     0.213100000000     0.808280000000    -0.10295    
C171     C      0.023120000000     0.196070000000     0.743480000000     0.000761616
C172     C      0.023230000000     0.242810000000     0.696130000000     0.00266081 
C173     C      0.022890000000     0.307760000000     0.712400000000    -0.104173   
C174     C      0.024000000000     0.324790000000     0.777190000000     0.00160092 
C175     C      0.004330000000     0.824720000000     0.743010000000     0.000351726
C176     C      0.004390000000     0.808130000000     0.807930000000    -0.0991688  
C177     C      0.003790000000     0.743220000000     0.824500000000     0.000280558
C178     C      0.003790000000     0.696150000000     0.777420000000     0.00105153 
C179     C      0.004400000000     0.712730000000     0.712500000000    -0.10071    
C180     C      0.004330000000     0.777640000000     0.695920000000     0.000987701
C181     C      0.023210000000     0.824520000000     0.277840000000     0.00234817 
C182     C      0.022930000000     0.808260000000     0.212890000000    -0.102879   
C183     C      0.024090000000     0.743460000000     0.195860000000     0.000765771
C184     C      0.024030000000     0.696110000000     0.242600000000     0.0024898  
C185     C      0.022760000000     0.712370000000     0.307550000000    -0.10382    
C186     C      0.023110000000     0.777170000000     0.324580000000     0.00141311 
C187     C      0.001900000000     0.196030000000     0.277510000000    -0.00161148 
C188     C      0.001990000000     0.212580000000     0.212580000000    -0.109684   
C189     C      0.001260000000     0.277520000000     0.196030000000    -0.00164251 
C190     C      0.001260000000     0.324620000000     0.243130000000    -0.00132255 
C191     C      0.001980000000     0.308070000000     0.308060000000    -0.110279   
C192     C      0.001900000000     0.243140000000     0.324610000000    -0.00127912 
Eu1      Eu     0.008950000000     0.009780000000     0.123560000000     3.42598    
Eu2      Eu     0.009980000000     0.897060000000     0.010640000000     3.00283    
Eu3      Eu     0.008920000000     0.123680000000     0.009780000000     3.41698    
Eu4      Eu     0.896200000000     0.010610000000     0.010750000000     3.00668    
Eu5      Eu     0.122850000000     0.009950000000     0.009700000000     3.44233    
Eu6      Eu     0.009990000000     0.010790000000     0.896970000000     3.01087    
Eu7      Eu     0.008870000000     0.510890000000     0.396970000000     3.43462    
Eu8      Eu     0.009950000000     0.623610000000     0.509840000000     3.00574    
Eu9      Eu     0.009000000000     0.397080000000     0.510850000000     3.44897    
Eu10     Eu     0.896200000000     0.509960000000     0.509970000000     3.05007    
Eu11     Eu     0.122850000000     0.510910000000     0.510720000000     3.50472    
Eu12     Eu     0.010020000000     0.510030000000     0.623650000000     3.02292    
Eu13     Eu     0.508790000000     0.009800000000     0.397040000000     3.43995    
Eu14     Eu     0.396090000000     0.010740000000     0.509850000000     3.00401    
Eu15     Eu     0.622600000000     0.009780000000     0.510900000000     3.43603    
Eu16     Eu     0.509790000000     0.897050000000     0.509930000000     3.04732    
Eu17     Eu     0.508830000000     0.123670000000     0.510830000000     3.49597    
Eu18     Eu     0.509830000000     0.010700000000     0.623610000000     3.01275    
Eu19     Eu     0.510150000000     0.397080000000     0.009760000000     3.44768    
Eu20     Eu     0.623000000000     0.509870000000     0.010720000000     3.01916    
Eu21     Eu     0.396380000000     0.511000000000     0.009670000000     3.4299     
Eu22     Eu     0.509450000000     0.509950000000     0.896990000000     3.05178    
Eu23     Eu     0.510110000000     0.510880000000     0.123620000000     3.5029     
Eu24     Eu     0.509410000000     0.623660000000     0.010670000000     3.01637    
H1       H      0.951510000000     0.951510000000     0.115780000000    -0.172553   
H2       H      0.101920000000     0.103670000000     0.102790000000     0.408115   
H3       H      0.950820000000     0.116190000000     0.951720000000    -0.163522   
H4       H      0.115100000000     0.951720000000     0.952170000000    -0.174247   
H5       H      0.950800000000     0.568960000000     0.404420000000    -0.167188   
H6       H      0.101920000000     0.417870000000     0.416970000000     0.410205   
H7       H      0.951530000000     0.404910000000     0.569110000000    -0.176036   
H8       H      0.115100000000     0.568470000000     0.568920000000    -0.18724    
H9       H      0.451000000000     0.952100000000     0.404950000000    -0.176062   
H10      H      0.601900000000     0.103030000000     0.417610000000     0.412907   
H11      H      0.614830000000     0.951940000000     0.568700000000    -0.174176   
H12      H      0.451030000000     0.115670000000     0.568510000000    -0.187396   
H13      H      0.568430000000     0.404880000000     0.952410000000    -0.176996   
H14      H      0.416380000000     0.417870000000     0.102760000000     0.409821   
H15      H      0.403970000000     0.569030000000     0.951610000000    -0.167796   
H16      H      0.568400000000     0.568200000000     0.115740000000    -0.18859    
H17      H      0.507000000000     0.146620000000     0.228330000000     0.0365463  
H18      H      0.506870000000     0.292280000000     0.373980000000     0.0368018  
H19      H      0.510660000000     0.374020000000     0.292250000000     0.0367437  
H20      H      0.510780000000     0.228360000000     0.146580000000     0.0364746  
H21      H      0.510770000000     0.728970000000     0.374150000000     0.0400277  
H22      H      0.516060000000     0.873790000000     0.227660000000     0.0404928  
H23      H      0.509710000000     0.791800000000     0.146460000000     0.0401028  
H24      H      0.504410000000     0.646990000000     0.292960000000     0.0389679  
H25      H      0.510100000000     0.646630000000     0.728320000000     0.0399549  
H26      H      0.510500000000     0.792310000000     0.873990000000     0.0417371  
H27      H      0.507980000000     0.874050000000     0.792240000000     0.0418387  
H28      H      0.507590000000     0.728380000000     0.646570000000     0.0400433  
H29      H      0.511280000000     0.146490000000     0.791710000000     0.0401323  
H30      H      0.515430000000     0.292990000000     0.646860000000     0.0390718  
H31      H      0.509060000000     0.374170000000     0.728860000000     0.0399978  
H32      H      0.504930000000     0.227680000000     0.873710000000     0.040343   
H33      H      0.873070000000     0.227330000000     0.504310000000     0.0402355  
H34      H      0.727880000000     0.373460000000     0.507520000000     0.03971    
H35      H      0.645970000000     0.292020000000     0.512550000000     0.0372864  
H36      H      0.791160000000     0.145880000000     0.509330000000     0.0377143  
H37      H      0.873820000000     0.792240000000     0.506690000000     0.0420695  
H38      H      0.727760000000     0.646950000000     0.509170000000     0.0400872  
H39      H      0.646270000000     0.728820000000     0.504800000000     0.0396748  
H40      H      0.792300000000     0.874130000000     0.502330000000     0.0410416  
H41      H      0.145960000000     0.228710000000     0.510960000000     0.0365955  
H42      H      0.291260000000     0.374760000000     0.508230000000     0.0368359  
H43      H      0.373110000000     0.293260000000     0.503100000000     0.0386272  
H44      H      0.227810000000     0.147220000000     0.505820000000     0.0389112  
H45      H      0.292380000000     0.646660000000     0.503350000000     0.038846   
H46      H      0.146240000000     0.791870000000     0.505870000000     0.0398452  
H47      H      0.227670000000     0.873790000000     0.510360000000     0.0413652  
H48      H      0.373820000000     0.728570000000     0.507830000000     0.0404122  
H49      H      0.873000000000     0.494890000000     0.227820000000     0.0404692  
H50      H      0.728100000000     0.497860000000     0.374270000000     0.0396524  
H51      H      0.645890000000     0.497810000000     0.292990000000     0.0387448  
H52      H      0.790780000000     0.494790000000     0.146540000000     0.0399281  
H53      H      0.291310000000     0.517640000000     0.373840000000     0.0372059  
H54      H      0.145700000000     0.518410000000     0.228150000000     0.0366455  
H55      H      0.227540000000     0.518470000000     0.146370000000     0.0366729  
H56      H      0.373130000000     0.517700000000     0.292090000000     0.0370997  
H57      H      0.292360000000     0.497850000000     0.646580000000     0.0390832  
H58      H      0.145910000000     0.495540000000     0.791480000000     0.0400316  
H59      H      0.227180000000     0.495620000000     0.873700000000     0.040536   
H60      H      0.373650000000     0.497890000000     0.728810000000     0.0399819  
H61      H      0.727740000000     0.515180000000     0.646710000000     0.0399402  
H62      H      0.873490000000     0.516700000000     0.792310000000     0.0417195  
H63      H      0.791740000000     0.516620000000     0.874120000000     0.0417823  
H64      H      0.646020000000     0.515100000000     0.728500000000     0.0401065  
H65      H      0.727740000000     0.873900000000     0.005210000000     0.0406234  
H66      H      0.873490000000     0.728290000000     0.004200000000     0.0406118  
H67      H      0.791740000000     0.646480000000     0.004260000000     0.0395858  
H68      H      0.646020000000     0.792110000000     0.005280000000     0.0397159  
H69      H      0.873010000000     0.292800000000     0.025440000000     0.0399314  
H70      H      0.728110000000     0.146340000000     0.023120000000     0.0388049  
H71      H      0.645890000000     0.227620000000     0.023170000000     0.0380419  
H72      H      0.790800000000     0.374070000000     0.025540000000     0.0395535  
H73      H      0.145860000000     0.729170000000     0.025070000000     0.0390956  
H74      H      0.292310000000     0.874070000000     0.022810000000     0.0399051  
H75      H      0.373600000000     0.791840000000     0.022770000000     0.0397112  
H76      H      0.227140000000     0.646950000000     0.024980000000     0.0384995  
H77      H      0.145740000000     0.292500000000     0.001930000000     0.0360639  
H78      H      0.291360000000     0.146810000000     0.003330000000     0.0363266  
H79      H      0.373180000000     0.228570000000     0.003260000000     0.0362419  
H80      H      0.227590000000     0.374280000000     0.001850000000     0.0360837  
H81      H      0.727760000000     0.011430000000     0.873730000000     0.0406974  
H82      H      0.873820000000     0.014010000000     0.728430000000     0.0409022  
H83      H      0.792310000000     0.018370000000     0.646550000000     0.0389869  
H84      H      0.646270000000     0.015800000000     0.791850000000     0.0393832  
H85      H      0.292420000000     0.017180000000     0.873970000000     0.0396284  
H86      H      0.146280000000     0.014850000000     0.728750000000     0.038767   
H87      H      0.227710000000     0.010360000000     0.646830000000     0.0392136  
H88      H      0.373860000000     0.012710000000     0.792050000000     0.0400849  
H89      H      0.145950000000     0.009660000000     0.291920000000     0.0360002  
H90      H      0.291250000000     0.012440000000     0.145870000000     0.0359859  
H91      H      0.373100000000     0.017580000000     0.227360000000     0.037925   
H92      H      0.227800000000     0.014800000000     0.373400000000     0.0384446  
H93      H      0.873040000000     0.016300000000     0.293340000000     0.0397404  
H94      H      0.727860000000     0.013140000000     0.147220000000     0.0388558  
H95      H      0.645940000000     0.008100000000     0.228660000000     0.0364759  
H96      H      0.791130000000     0.011280000000     0.374800000000     0.0372072  
H97      H      0.024010000000     0.293060000000     0.873890000000     0.0399943  
H98      H      0.022550000000     0.146550000000     0.729020000000     0.0391815  
H99      H      0.022660000000     0.227790000000     0.646780000000     0.0383566  
H100     H      0.024170000000     0.374310000000     0.791630000000     0.0396     
H101     H      0.004650000000     0.874150000000     0.728270000000     0.0406529  
H102     H      0.003620000000     0.728480000000     0.873930000000     0.0406073  
H103     H      0.003630000000     0.646710000000     0.792160000000     0.0395859  
H104     H      0.004660000000     0.792380000000     0.646490000000     0.0396899  
H105     H      0.022600000000     0.873860000000     0.292860000000     0.0399608  
H106     H      0.024300000000     0.729020000000     0.146340000000     0.0391373  
H107     H      0.024140000000     0.646760000000     0.227590000000     0.0384808  
H108     H      0.022490000000     0.791630000000     0.374100000000     0.039782   
H109     H      0.002280000000     0.146600000000     0.292250000000     0.0360072  
H110     H      0.001080000000     0.292250000000     0.146600000000     0.0360112  
H111     H      0.001080000000     0.374050000000     0.228380000000     0.0359705  
H112     H      0.002280000000     0.228400000000     0.374040000000     0.0359726  
O1       O      0.005390000000     0.181960000000     0.101390000000    -0.611399   
O2       O      0.015440000000     0.839110000000     0.102240000000    -0.55891    
O3       O      0.918550000000     0.016440000000     0.183060000000    -0.5939     
O4       O      0.100630000000     0.008360000000     0.181750000000    -0.613112   
O5       O      0.181130000000     0.008510000000     0.101160000000    -0.616187   
O6       O      0.838160000000     0.013400000000     0.102540000000    -0.558968   
O7       O      0.019020000000     0.919520000000     0.182730000000    -0.593272   
O8       O      0.004740000000     0.101380000000     0.181860000000    -0.611618   
O9       O      0.072720000000     0.948620000000     0.073290000000    -1.44375    
O10      O      0.947530000000     0.073370000000     0.073390000000    -1.44172    
O11      O      0.937550000000     0.938040000000     0.075740000000    -1.04097    
O12      O      0.074920000000     0.076020000000     0.075750000000    -1.61343    
O13      O      0.007410000000     0.838730000000     0.919100000000    -0.54918    
O14      O      0.018040000000     0.182990000000     0.919530000000    -0.593569   
O15      O      0.837960000000     0.919090000000     0.007290000000    -0.550403   
O16      O      0.182090000000     0.919700000000     0.019570000000    -0.594452   
O17      O      0.181030000000     0.101610000000     0.005640000000    -0.613036   
O18      O      0.838290000000     0.102200000000     0.016900000000    -0.56021    
O19      O      0.918560000000     0.010270000000     0.838600000000    -0.551067   
O20      O      0.101720000000     0.013970000000     0.838980000000    -0.560327   
O21      O      0.837960000000     0.010120000000     0.919100000000    -0.549534   
O22      O      0.182240000000     0.017010000000     0.919370000000    -0.596634   
O23      O      0.918550000000     0.838600000000     0.008000000000    -0.549498   
O24      O      0.918610000000     0.182840000000     0.019000000000    -0.59376    
O25      O      0.100480000000     0.182110000000     0.006320000000    -0.611107   
O26      O      0.101680000000     0.839210000000     0.016000000000    -0.558722   
O27      O      0.006690000000     0.919300000000     0.838600000000    -0.550137   
O28      O      0.015980000000     0.102430000000     0.839150000000    -0.560348   
O29      O      0.072630000000     0.073490000000     0.948350000000    -1.44435    
O30      O      0.947540000000     0.948420000000     0.948170000000    -1.34115    
O31      O      0.937480000000     0.075860000000     0.938330000000    -1.04634    
O32      O      0.075060000000     0.938230000000     0.938230000000    -1.04081    
O33      O      0.004780000000     0.338790000000     0.419250000000    -0.614198   
O34      O      0.015990000000     0.681480000000     0.418230000000    -0.559524   
O35      O      0.918600000000     0.501630000000     0.337780000000    -0.594805   
O36      O      0.100440000000     0.514350000000     0.338550000000    -0.61182    
O37      O      0.181000000000     0.515000000000     0.419040000000    -0.618083   
O38      O      0.838270000000     0.503790000000     0.418400000000    -0.563787   
O39      O      0.018040000000     0.601120000000     0.337650000000    -0.597962   
O40      O      0.005350000000     0.419270000000     0.338680000000    -0.613161   
O41      O      0.072670000000     0.572200000000     0.447160000000    -1.45688    
O42      O      0.947530000000     0.447210000000     0.447330000000    -1.4514     
O43      O      0.937440000000     0.582360000000     0.444730000000    -1.0535     
O44      O      0.074920000000     0.444910000000     0.444610000000    -1.62568    
O45      O      0.006650000000     0.682020000000     0.601320000000    -0.552433   
O46      O      0.019020000000     0.337930000000     0.601120000000    -0.598597   
O47      O      0.837940000000     0.601580000000     0.510490000000    -0.555921   
O48      O      0.182220000000     0.601260000000     0.503650000000    -0.603811   
O49      O      0.181140000000     0.419470000000     0.512150000000    -0.621951   
O50      O      0.838180000000     0.418150000000     0.507200000000    -0.562065   
O51      O      0.918550000000     0.512640000000     0.682040000000    -0.5504     
O52      O      0.101730000000     0.504670000000     0.681470000000    -0.560217   
O53      O      0.837970000000     0.513390000000     0.601520000000    -0.556322   
O54      O      0.182120000000     0.501050000000     0.600950000000    -0.602276   
O55      O      0.918560000000     0.682040000000     0.510380000000    -0.549511   
O56      O      0.918580000000     0.337610000000     0.504210000000    -0.595001   
O57      O      0.100640000000     0.338880000000     0.512260000000    -0.615215   
O58      O      0.101670000000     0.681620000000     0.506650000000    -0.558602   
O59      O      0.007460000000     0.601560000000     0.681940000000    -0.554604   
O60      O      0.015430000000     0.418400000000     0.681560000000    -0.561156   
O61      O      0.072680000000     0.447350000000     0.572110000000    -1.45991    
O62      O      0.947550000000     0.572340000000     0.572350000000    -1.35609    
O63      O      0.937580000000     0.444960000000     0.582560000000    -1.04918    
O64      O      0.075060000000     0.582420000000     0.582410000000    -1.04557    
O65      O      0.680930000000     0.007510000000     0.419470000000    -0.614342   
O66      O      0.338070000000     0.014570000000     0.418100000000    -0.559201   
O67      O      0.516100000000     0.919400000000     0.337760000000    -0.594852   
O68      O      0.506110000000     0.101410000000     0.338690000000    -0.612844   
O69      O      0.506150000000     0.181960000000     0.419200000000    -0.618545   
O70      O      0.513170000000     0.839060000000     0.418350000000    -0.563735   
O71      O      0.418490000000     0.017500000000     0.337610000000    -0.597947   
O72      O      0.600480000000     0.007460000000     0.338860000000    -0.614478   
O73      O      0.447350000000     0.073670000000     0.447090000000    -1.45295    
O74      O      0.572620000000     0.948260000000     0.447080000000    -1.44598    
O75      O      0.437360000000     0.938340000000     0.444970000000    -1.04898    
O76      O      0.574760000000     0.075770000000     0.444880000000    -1.62812    
O77      O      0.337850000000     0.009270000000     0.601450000000    -0.552567   
O78      O      0.682050000000     0.017680000000     0.601170000000    -0.597438   
O79      O      0.418440000000     0.838690000000     0.511360000000    -0.556292   
O80      O      0.418490000000     0.183040000000     0.503160000000    -0.601898   
O81      O      0.600520000000     0.181830000000     0.513160000000    -0.619511   
O82      O      0.601560000000     0.839080000000     0.505900000000    -0.562291   
O83      O      0.507720000000     0.919200000000     0.681970000000    -0.549018   
O84      O      0.513170000000     0.102300000000     0.681590000000    -0.560399   
O85      O      0.507670000000     0.838670000000     0.601430000000    -0.555315   
O86      O      0.516070000000     0.182910000000     0.601260000000    -0.602742   
O87      O      0.337830000000     0.919170000000     0.511340000000    -0.548663   
O88      O      0.682040000000     0.919500000000     0.503000000000    -0.593422   
O89      O      0.680950000000     0.101200000000     0.513150000000    -0.61363    
O90      O      0.338080000000     0.102510000000     0.506050000000    -0.558099   
O91      O      0.418470000000     0.009290000000     0.681940000000    -0.554058   
O92      O      0.601580000000     0.014720000000     0.681590000000    -0.560153   
O93      O      0.572580000000     0.073660000000     0.572410000000    -1.45221    
O94      O      0.447310000000     0.948250000000     0.572450000000    -1.35151    
O95      O      0.574790000000     0.938250000000     0.582390000000    -1.05106    
O96      O      0.437390000000     0.075650000000     0.582250000000    -1.04498    
O97      O      0.337970000000     0.419450000000     0.006160000000    -0.612456   
O98      O      0.680820000000     0.418200000000     0.016200000000    -0.560766   
O99      O      0.503830000000     0.337770000000     0.919300000000    -0.596183   
O100     O      0.511900000000     0.338720000000     0.101370000000    -0.613692   
O101     O      0.511850000000     0.419240000000     0.181930000000    -0.619183   
O102     O      0.506980000000     0.418370000000     0.838970000000    -0.564633   
O103     O      0.600320000000     0.337810000000     0.019850000000    -0.59821    
O104     O      0.418470000000     0.338900000000     0.005550000000    -0.614315   
O105     O      0.571370000000     0.447300000000     0.073460000000    -1.45997    
O106     O      0.446620000000     0.447320000000     0.948280000000    -1.45016    
O107     O      0.581930000000     0.444850000000     0.938330000000    -1.04888    
O108     O      0.443950000000     0.444930000000     0.075710000000    -1.62519    
O109     O      0.681440000000     0.601320000000     0.008150000000    -0.55394    
O110     O      0.337160000000     0.601300000000     0.018780000000    -0.597594   
O111     O      0.600940000000     0.513290000000     0.838720000000    -0.555951   
O112     O      0.600310000000     0.500830000000     0.182830000000    -0.602163   
O113     O      0.418420000000     0.515080000000     0.181780000000    -0.619136   
O114     O      0.417830000000     0.503980000000     0.839040000000    -0.563338   
O115     O      0.510680000000     0.682030000000     0.919140000000    -0.549363   
O116     O      0.507000000000     0.681690000000     0.102260000000    -0.561228   
O117     O      0.510710000000     0.601480000000     0.838600000000    -0.55573    
O118     O      0.503840000000     0.601380000000     0.182890000000    -0.603906   
O119     O      0.681450000000     0.512460000000     0.919280000000    -0.54997    
O120     O      0.337190000000     0.501860000000     0.919350000000    -0.593672   
O121     O      0.337950000000     0.514500000000     0.101200000000    -0.611805   
O122     O      0.680810000000     0.504400000000     0.102410000000    -0.559687   
O123     O      0.600930000000     0.681900000000     0.007350000000    -0.553459   
O124     O      0.417790000000     0.681620000000     0.016630000000    -0.560846   
O125     O      0.446650000000     0.572380000000     0.073400000000    -1.45645    
O126     O      0.571740000000     0.572380000000     0.948320000000    -1.35797    
O127     O      0.444250000000     0.582460000000     0.938170000000    -1.05318    
O128     O      0.581910000000     0.582260000000     0.075760000000    -1.04463    


