data_structure

_audit_creation_method RASPA-1.0
_audit_creation_date 2023-5-19
_audit_author_name 'Poobodin Mano'

_cell_length_a    20.7266
_cell_length_b    20.6213
_cell_length_c    20.6728
_cell_angle_alpha 90
_cell_angle_beta  90
_cell_angle_gamma 90
_cell_volume      8835.75

_symmetry_cell_setting          triclinic
_symmetry_space_group_name_Hall 'P 1'
_symmetry_space_group_name_H-M  'P 1'
_symmetry_Int_Tables_number     1

_symmetry_equiv_pos_as_xyz 'x,y,z'

loop_
_atom_site_label
_atom_site_type_symbol
_atom_site_fract_x
_atom_site_fract_y
_atom_site_fract_z
_atom_site_charge
Br1      Br     0.470270000000     0.304750000000     0.399850000000    -0.232156   
Br2      Br     0.547650000000     0.697670000000     0.394230000000    -0.187313   
Br3      Br     0.348970000000     0.666770000000     0.767770000000    -0.171473   
Br4      Br     0.521830000000     0.194710000000     0.898880000000    -0.202012   
Br5      Br     0.793530000000     0.103510000000     0.547560000000    -0.183272   
Br6      Br     0.604040000000     0.704890000000     0.564930000000    -0.189337   
Br7      Br     0.188320000000     0.096420000000     0.474140000000    -0.225839   
Br8      Br     0.394900000000     0.689980000000     0.510150000000    -0.188865   
Br9      Br     0.890500000000     0.491680000000     0.190380000000    -0.144603   
Br10     Br     0.091430000000     0.498750000000     0.192600000000    -0.186684   
Br11     Br     0.235590000000     0.369150000000     0.668350000000    -0.185314   
Br12     Br     0.794060000000     0.460160000000     0.895370000000    -0.190358   
Br13     Br     0.799480000000     0.598370000000     0.017250000000    -0.185445   
Br14     Br     0.893460000000     0.308140000000     0.013830000000    -0.194143   
Br15     Br     0.270300000000     0.679770000000     0.853200000000    -0.185957   
Br16     Br     0.391320000000     0.196150000000     0.028080000000    -0.197425   
Br17     Br     0.786330000000     0.936830000000     0.607860000000    -0.184472   
Br18     Br     0.392810000000     0.028290000000     0.801170000000    -0.207972   
Br19     Br     0.396480000000     0.015980000000     0.189510000000    -0.221881   
Br20     Br     0.802000000000     0.990780000000     0.401580000000    -0.199146   
Br21     Br     0.140670000000     0.321990000000     0.715500000000    -0.178929   
Br22     Br     0.950310000000     0.799510000000     0.599360000000    -0.208595   
Br23     Br     0.040280000000     0.694650000000     0.098460000000    -0.195968   
Br24     Br     0.942370000000     0.390310000000     0.198190000000    -0.147995   
C1       C      0.993270000000     0.152090000000     0.152980000000     0.505695   
C2       C      0.008490000000     0.841850000000     0.151740000000     0.518926   
C3       C      0.841340000000     0.004210000000     0.155070000000     0.505189   
C4       C      0.150860000000     0.995290000000     0.150930000000     0.503327   
C5       C      0.986940000000     0.842700000000     0.842750000000     0.50171    
C6       C      0.003720000000     0.153300000000     0.840830000000     0.503976   
C7       C      0.839600000000     0.844290000000     0.996580000000     0.50107    
C8       C      0.150730000000     0.843490000000     0.997410000000     0.504581   
C9       C      0.148570000000     0.154860000000     0.993600000000     0.504591   
C10      C      0.841160000000     0.156960000000     0.004540000000     0.518182   
C11      C      0.837800000000     0.996470000000     0.844670000000     0.502227   
C12      C      0.148330000000     0.005950000000     0.841210000000     0.516844   
C13      C      0.987160000000     0.343020000000     0.342280000000     0.516622   
C14      C      0.005620000000     0.652590000000     0.342900000000     0.508469   
C15      C      0.838620000000     0.496830000000     0.341150000000     0.519457   
C16      C      0.146700000000     0.500430000000     0.343040000000     0.516092   
C17      C      0.985070000000     0.652960000000     0.652610000000     0.513259   
C18      C      0.005070000000     0.337090000000     0.648550000000     0.525876   
C19      C      0.839480000000     0.653310000000     0.501170000000     0.505106   
C20      C      0.149600000000     0.651450000000     0.493540000000     0.513648   
C21      C      0.147570000000     0.342050000000     0.500800000000     0.515662   
C22      C      0.837240000000     0.342390000000     0.491330000000     0.513612   
C23      C      0.837110000000     0.496280000000     0.652400000000     0.500652   
C24      C      0.145420000000     0.491800000000     0.657760000000     0.521162   
C25      C      0.652090000000     0.995690000000     0.346460000000     0.513029   
C26      C      0.342440000000     0.003210000000     0.339590000000     0.518216   
C27      C      0.508140000000     0.843310000000     0.343530000000     0.525681   
C28      C      0.487980000000     0.154880000000     0.345430000000     0.516571   
C29      C      0.339500000000     0.998440000000     0.653540000000     0.514641   
C30      C      0.649610000000     0.999600000000     0.654580000000     0.522269   
C31      C      0.340570000000     0.840360000000     0.498680000000     0.511189   
C32      C      0.337120000000     0.151610000000     0.491420000000     0.521847   
C33      C      0.648600000000     0.152320000000     0.505490000000     0.519631   
C34      C      0.648970000000     0.841590000000     0.498630000000     0.525642   
C35      C      0.485070000000     0.842690000000     0.654070000000     0.498974   
C36      C      0.502040000000     0.154630000000     0.653320000000     0.512052   
C37      C      0.338530000000     0.345280000000     0.002980000000     0.515568   
C38      C      0.342300000000     0.659920000000     0.987280000000     0.522845   
C39      C      0.336910000000     0.497170000000     0.153210000000     0.509247   
C40      C      0.336420000000     0.501650000000     0.843790000000     0.509576   
C41      C      0.650580000000     0.653310000000     0.000650000000     0.514176   
C42      C      0.647440000000     0.343950000000     0.995950000000     0.508115   
C43      C      0.500990000000     0.655800000000     0.152630000000     0.508213   
C44      C      0.480720000000     0.657380000000     0.844910000000     0.526863   
C45      C      0.500250000000     0.344010000000     0.844600000000     0.520437   
C46      C      0.483950000000     0.344210000000     0.153390000000     0.507904   
C47      C      0.646250000000     0.505050000000     0.153780000000     0.502204   
C48      C      0.647340000000     0.491740000000     0.842190000000     0.520112   
C49      C      0.487000000000     0.233110000000     0.186040000000     0.0404507  
C50      C      0.478230000000     0.314980000000     0.264580000000     0.00576879 
C51      C      0.488150000000     0.186200000000     0.234840000000     0.041571   
C52      C      0.479150000000     0.268460000000     0.313930000000     0.151652   
C53      C      0.501270000000     0.766620000000     0.184620000000     0.0377032  
C54      C      0.516860000000     0.684750000000     0.262430000000     0.00866564 
C55      C      0.504060000000     0.813380000000     0.233120000000     0.044148   
C56      C      0.521290000000     0.731310000000     0.311140000000     0.153852   
C57      C      0.519230000000     0.803950000000     0.755670000000     0.0433192  
C58      C      0.439530000000     0.745910000000     0.697790000000     0.0176366  
C59      C      0.518070000000     0.757180000000     0.804110000000     0.0512385  
C60      C      0.433660000000     0.702380000000     0.749970000000     0.156044   
C61      C      0.500930000000     0.265750000000     0.685470000000     0.0401335  
C62      C      0.509430000000     0.183960000000     0.764200000000     0.00965849 
C63      C      0.500410000000     0.312720000000     0.734120000000     0.0411379  
C64      C      0.509640000000     0.230570000000     0.813320000000     0.154959   
C65      C      0.726740000000     0.310430000000     0.487360000000     0.0382191  
C66      C      0.807410000000     0.232610000000     0.507030000000     0.00945806 
C67      C      0.679650000000     0.262290000000     0.492490000000     0.0387179  
C68      C      0.760570000000     0.184630000000     0.514690000000     0.150851   
C69      C      0.806390000000     0.762770000000     0.485730000000     0.0476285  
C70      C      0.731040000000     0.684660000000     0.520280000000     0.011341   
C71      C      0.757800000000     0.809520000000     0.484700000000     0.0516601  
C72      C      0.682680000000     0.731830000000     0.522230000000     0.16084    
C73      C      0.258200000000     0.310190000000     0.500220000000     0.0460112  
C74      C      0.177040000000     0.230930000000     0.492520000000     0.00943199 
C75      C      0.305260000000     0.261920000000     0.496860000000     0.0453502  
C76      C      0.223770000000     0.182180000000     0.488080000000     0.155735   
C77      C      0.181950000000     0.762440000000     0.492340000000     0.0394996  
C78      C      0.260440000000     0.680250000000     0.497090000000     0.0118998  
C79      C      0.230480000000     0.809310000000     0.494400000000     0.0417955  
C80      C      0.309440000000     0.726670000000     0.500060000000     0.150983   
C81      C      0.679090000000     0.505180000000     0.264610000000     0.0390176  
C82      C      0.757130000000     0.507390000000     0.182230000000     0.0101736  
C83      C      0.728080000000     0.502280000000     0.311020000000     0.0435232  
C84      C      0.806450000000     0.503820000000     0.228080000000     0.153506   
C85      C      0.305200000000     0.497990000000     0.264300000000     0.0380711  
C86      C      0.226200000000     0.497110000000     0.182750000000     0.00962838 
C87      C      0.256840000000     0.499410000000     0.311400000000     0.0396674  
C88      C      0.177370000000     0.498630000000     0.229340000000     0.147801   
C89      C      0.229070000000     0.524860000000     0.810060000000     0.0483771  
C90      C      0.298010000000     0.465080000000     0.741680000000     0.0133586  
C91      C      0.181090000000     0.523740000000     0.762560000000     0.0550903  
C92      C      0.246360000000     0.455800000000     0.698820000000     0.157531   
C93      C      0.726310000000     0.499720000000     0.683840000000     0.0375576  
C94      C      0.806830000000     0.485240000000     0.762630000000     0.00821817 
C95      C      0.679080000000     0.497540000000     0.732010000000     0.0444069  
C96      C      0.759950000000     0.481790000000     0.811070000000     0.154305   
C97      C      0.728990000000     0.812340000000     0.995010000000     0.0370659  
C98      C      0.810260000000     0.733130000000     0.002270000000     0.00947986 
C99      C      0.682100000000     0.763800000000     0.996640000000     0.0403187  
C100     C      0.763760000000     0.684140000000     0.004800000000     0.153529   
C101     C      0.681180000000     0.233060000000     0.998370000000     0.0362199  
C102     C      0.758540000000     0.316110000000     0.003480000000     0.0106457  
C103     C      0.730450000000     0.186800000000     0.001450000000     0.045374   
C104     C      0.808310000000     0.270360000000     0.006320000000     0.157084   
C105     C      0.251230000000     0.803240000000     0.033100000000     0.0417913  
C106     C      0.196400000000     0.749980000000     0.947960000000     0.0152814  
C107     C      0.300290000000     0.757120000000     0.030010000000     0.0506746  
C108     C      0.249420000000     0.708070000000     0.940160000000     0.151812   
C109     C      0.180380000000     0.266230000000     0.991920000000     0.0367749  
C110     C      0.258820000000     0.184730000000     0.003380000000     0.00732634 
C111     C      0.228550000000     0.313600000000     0.995380000000     0.0392778  
C112     C      0.307240000000     0.231680000000     0.008320000000     0.152583   
C113     C      0.728140000000     0.009930000000     0.812600000000     0.0387941  
C114     C      0.806320000000     0.979490000000     0.735730000000     0.00798844 
C115     C      0.681220000000     0.010900000000     0.764150000000     0.0445642  
C116     C      0.759210000000     0.977710000000     0.687510000000     0.16008    
C117     C      0.180470000000     0.999600000000     0.730570000000     0.0407054  
C118     C      0.258650000000     0.013490000000     0.811880000000     0.0120018  
C119     C      0.229220000000     0.997080000000     0.684040000000     0.043928   
C120     C      0.307770000000     0.011850000000     0.765780000000     0.15567    
C121     C      0.183740000000     0.995200000000     0.261610000000     0.0369649  
C122     C      0.261910000000     0.002050000000     0.179560000000     0.00519817 
C123     C      0.232350000000     0.998020000000     0.308330000000     0.0389753  
C124     C      0.311050000000     0.005610000000     0.225950000000     0.153415   
C125     C      0.730720000000     0.003520000000     0.187590000000     0.0364921  
C126     C      0.812250000000     0.000710000000     0.266480000000     0.00980844 
C127     C      0.683860000000     0.000490000000     0.236140000000     0.0388729  
C128     C      0.765740000000     0.997140000000     0.315580000000     0.146066   
C129     C      0.963720000000     0.193970000000     0.742050000000     0.0390185  
C130     C      0.052440000000     0.245810000000     0.792020000000     0.0141364  
C131     C      0.964110000000     0.240370000000     0.693030000000     0.0509779  
C132     C      0.056860000000     0.288320000000     0.738900000000     0.151044   
C133     C      0.989230000000     0.731570000000     0.811160000000     0.0388446  
C134     C      0.974700000000     0.812720000000     0.732520000000     0.00816149 
C135     C      0.988290000000     0.684330000000     0.762870000000     0.044421   
C136     C      0.972410000000     0.765730000000     0.683860000000     0.154863   
C137     C      0.006300000000     0.763760000000     0.310850000000     0.0365605  
C138     C      0.018110000000     0.682150000000     0.232340000000     0.0090773  
C139     C      0.007540000000     0.810810000000     0.262270000000     0.0442508  
C140     C      0.020590000000     0.728940000000     0.183350000000     0.155607   
C141     C      0.999080000000     0.184010000000     0.263880000000     0.0351099  
C142     C      0.984270000000     0.262710000000     0.182940000000     0.00598213 
C143     C      0.996950000000     0.232500000000     0.311070000000     0.0397956  
C144     C      0.978670000000     0.310900000000     0.229940000000     0.150359   
Eu1      Eu     0.995460000000     0.997140000000     0.112150000000     3.44479    
Eu2      Eu     0.995160000000     0.883320000000     0.996880000000     3.04408    
Eu3      Eu     0.994750000000     0.113810000000     0.996240000000     3.46731    
Eu4      Eu     0.879880000000     0.999840000000     0.999140000000     3.03425    
Eu5      Eu     0.109150000000     0.997860000000     0.995740000000     3.53101    
Eu6      Eu     0.993370000000     0.998850000000     0.882200000000     3.07198    
Eu7      Eu     0.992540000000     0.498540000000     0.384190000000     3.50255    
Eu8      Eu     0.994170000000     0.612340000000     0.498220000000     3.0804     
Eu9      Eu     0.991520000000     0.382200000000     0.498030000000     3.5        
Eu10     Eu     0.878090000000     0.497540000000     0.497500000000     3.04056    
Eu11     Eu     0.107930000000     0.496980000000     0.500240000000     3.48297    
Eu12     Eu     0.992990000000     0.496100000000     0.613780000000     3.04047    
Eu13     Eu     0.495250000000     0.997600000000     0.384010000000     3.47496    
Eu14     Eu     0.379490000000     0.997090000000     0.497300000000     3.04376    
Eu15     Eu     0.608350000000     0.996810000000     0.500680000000     3.54133    
Eu16     Eu     0.494200000000     0.882500000000     0.498810000000     3.08212    
Eu17     Eu     0.492960000000     0.112800000000     0.499990000000     3.48615    
Eu18     Eu     0.494260000000     0.997980000000     0.613960000000     3.07252    
Eu19     Eu     0.377990000000     0.502770000000     0.998400000000     3.42738    
Eu20     Eu     0.494180000000     0.615900000000     0.998020000000     3.10191    
Eu21     Eu     0.493090000000     0.385860000000     0.999460000000     3.52005    
Eu22     Eu     0.491940000000     0.500640000000     0.113330000000     3.07058    
Eu23     Eu     0.492690000000     0.500950000000     0.882580000000     3.44956    
Eu24     Eu     0.606810000000     0.499480000000     0.997720000000     3.08065    
H1       H      0.936530000000     0.937720000000     0.105140000000    -0.165726   
H2       H      0.089430000000     0.092330000000     0.090480000000     0.418481   
H3       H      0.935190000000     0.106730000000     0.938000000000    -0.175219   
H4       H      0.100370000000     0.940230000000     0.936500000000    -0.200706   
H5       H      0.934790000000     0.558470000000     0.391430000000    -0.175547   
H6       H      0.086160000000     0.402930000000     0.404200000000     0.418697   
H7       H      0.933530000000     0.389940000000     0.557640000000    -0.177802   
H8       H      0.099960000000     0.556130000000     0.558880000000    -0.181146   
H9       H      0.437240000000     0.938220000000     0.391080000000    -0.181174   
H10      H      0.588360000000     0.092880000000     0.406110000000     0.419614   
H11      H      0.599590000000     0.938360000000     0.558720000000    -0.201402   
H12      H      0.433770000000     0.104750000000     0.558610000000    -0.169926   
H13      H      0.386120000000     0.561950000000     0.057080000000    -0.172122   
H14      H      0.398930000000     0.405930000000     0.904850000000     0.415242   
H15      H      0.551030000000     0.393480000000     0.058710000000    -0.185779   
H16      H      0.551650000000     0.559920000000     0.890070000000    -0.174323   
H17      H      0.492840000000     0.136140000000     0.219620000000     0.0505192  
H18      H      0.491270000000     0.216690000000     0.136470000000     0.0564906  
H19      H      0.473700000000     0.365500000000     0.278440000000     0.0618499  
H20      H      0.497630000000     0.863450000000     0.218440000000     0.0444571  
H21      H      0.493460000000     0.782980000000     0.135390000000     0.0407753  
H22      H      0.524040000000     0.634370000000     0.275720000000     0.0635832  
H23      H      0.551500000000     0.762120000000     0.844220000000     0.0355775  
H24      H      0.552710000000     0.844130000000     0.760530000000     0.042038   
H25      H      0.404390000000     0.743870000000     0.658960000000     0.0687182  
H26      H      0.496340000000     0.362830000000     0.718790000000     0.0381394  
H27      H      0.497320000000     0.282140000000     0.635770000000     0.0424603  
H28      H      0.514060000000     0.133460000000     0.778120000000     0.0724983  
H29      H      0.629970000000     0.276920000000     0.484970000000     0.0431444  
H30      H      0.711050000000     0.359520000000     0.477100000000     0.0398764  
H31      H      0.857350000000     0.219170000000     0.515180000000     0.0629026  
H32      H      0.771020000000     0.857770000000     0.468760000000     0.0644145  
H33      H      0.854460000000     0.777250000000     0.470930000000     0.0531059  
H34      H      0.719110000000     0.636160000000     0.536720000000     0.0635197  
H35      H      0.355100000000     0.277510000000     0.499790000000     0.0517875  
H36      H      0.274370000000     0.359980000000     0.504760000000     0.0463881  
H37      H      0.126740000000     0.216670000000     0.489860000000     0.0622426  
H38      H      0.215290000000     0.859590000000     0.492690000000     0.0418394  
H39      H      0.132380000000     0.779010000000     0.489560000000     0.0447958  
H40      H      0.274380000000     0.629590000000     0.498930000000     0.063264   
H41      H      0.713170000000     0.500680000000     0.361250000000     0.0416304  
H42      H      0.629540000000     0.505350000000     0.281430000000     0.0426841  
H43      H      0.770840000000     0.507840000000     0.131660000000     0.0820671  
H44      H      0.272330000000     0.500220000000     0.361480000000     0.0397426  
H45      H      0.354920000000     0.497890000000     0.280570000000     0.0423375  
H46      H      0.211940000000     0.496260000000     0.132280000000     0.0646135  
H47      H      0.136290000000     0.549240000000     0.771900000000     0.0418196  
H48      H      0.218400000000     0.548890000000     0.855410000000     0.0548475  
H49      H      0.341300000000     0.436260000000     0.734950000000     0.0498786  
H50      H      0.629400000000     0.503490000000     0.716700000000     0.0403191  
H51      H      0.710570000000     0.506700000000     0.634310000000     0.0423387  
H52      H      0.856840000000     0.478930000000     0.776740000000     0.0656189  
H53      H      0.632210000000     0.779300000000     0.993710000000     0.0383176  
H54      H      0.712810000000     0.862200000000     0.991280000000     0.0382116  
H55      H      0.860540000000     0.718900000000     0.005400000000     0.0718378  
H56      H      0.715820000000     0.136350000000     0.000520000000     0.0398318  
H57      H      0.631870000000     0.215910000000     0.996020000000     0.0548939  
H58      H      0.771840000000     0.366840000000     0.006050000000     0.08342    
H59      H      0.339450000000     0.760040000000     0.064740000000     0.0358533  
H60      H      0.254680000000     0.841400000000     0.069090000000     0.0407557  
H61      H      0.158700000000     0.749940000000     0.911530000000     0.0573974  
H62      H      0.213370000000     0.363730000000     0.991110000000     0.0402736  
H63      H      0.130980000000     0.282360000000     0.985730000000     0.0459672  
H64      H      0.272800000000     0.134250000000     0.007960000000     0.0634117  
H65      H      0.632730000000     0.025020000000     0.777960000000     0.0427452  
H66      H      0.713580000000     0.022800000000     0.861310000000     0.0402585  
H67      H      0.854860000000     0.964490000000     0.723010000000     0.0666005  
H68      H      0.214360000000     0.990030000000     0.634240000000     0.047105   
H69      H      0.130990000000     0.994410000000     0.714360000000     0.0437314  
H70      H      0.272360000000     0.021030000000     0.861950000000     0.0664499  
H71      H      0.217180000000     0.995540000000     0.358430000000     0.0498585  
H72      H      0.134300000000     0.991230000000     0.278270000000     0.0395624  
H73      H      0.275690000000     0.004320000000     0.129000000000     0.0626073  
H74      H      0.633900000000     0.000830000000     0.220600000000     0.0389718  
H75      H      0.714290000000     0.005730000000     0.137860000000     0.0388027  
H76      H      0.862650000000     0.000290000000     0.280580000000     0.061332   
H77      H      0.927290000000     0.237920000000     0.655760000000     0.0365173  
H78      H      0.927190000000     0.156280000000     0.740570000000     0.0427857  
H79      H      0.090700000000     0.245600000000     0.827850000000     0.0571729  
H80      H      0.994760000000     0.634430000000     0.778050000000     0.0424353  
H81      H      0.995940000000     0.715580000000     0.860670000000     0.0471984  
H82      H      0.967680000000     0.862970000000     0.718680000000     0.0651211  
H83      H      0.002410000000     0.860870000000     0.277440000000     0.0390285  
H84      H      0.000730000000     0.780070000000     0.360400000000     0.0432603  
H85      H      0.023410000000     0.631750000000     0.218500000000     0.0848055  
H86      H      0.003770000000     0.217590000000     0.360890000000     0.0397614  
H87      H      0.006550000000     0.134460000000     0.279740000000     0.0402082  
H88      H      0.977210000000     0.276630000000     0.132910000000     0.0770082  
N1       N      0.482600000000     0.297570000000     0.200910000000    -0.188175   
N2       N      0.484910000000     0.203120000000     0.299080000000    -0.210473   
N3       N      0.506020000000     0.702270000000     0.199600000000    -0.189853   
N4       N      0.512000000000     0.796080000000     0.296770000000    -0.209747   
N5       N      0.482140000000     0.796670000000     0.701500000000    -0.182948   
N6       N      0.477530000000     0.705130000000     0.799420000000    -0.21081    
N7       N      0.504350000000     0.201300000000     0.700610000000    -0.188742   
N8       N      0.503650000000     0.295800000000     0.798360000000    -0.211238   
N9       N      0.790630000000     0.295330000000     0.493950000000    -0.191434   
N10      N      0.696120000000     0.199000000000     0.505070000000    -0.211508   
N11      N      0.792610000000     0.700110000000     0.502210000000    -0.186906   
N12      N      0.695620000000     0.794290000000     0.501760000000    -0.205781   
N13      N      0.194070000000     0.294670000000     0.498490000000    -0.190815   
N14      N      0.288790000000     0.197640000000     0.491370000000    -0.207178   
N15      N      0.196980000000     0.697920000000     0.493700000000    -0.190408   
N16      N      0.294450000000     0.792150000000     0.498010000000    -0.205777   
N17      N      0.693700000000     0.506490000000     0.200130000000    -0.186487   
N18      N      0.792040000000     0.500320000000     0.293410000000    -0.206767   
N19      N      0.289820000000     0.497060000000     0.199960000000    -0.190368   
N20      N      0.192680000000     0.499780000000     0.294680000000    -0.210872   
N21      N      0.288700000000     0.498860000000     0.797940000000    -0.185945   
N22      N      0.191300000000     0.491610000000     0.705600000000    -0.206265   
N23      N      0.790240000000     0.494250000000     0.699290000000    -0.187577   
N24      N      0.695320000000     0.489720000000     0.795970000000    -0.208509   
N25      N      0.793080000000     0.796950000000     0.997540000000    -0.188189   
N26      N      0.698780000000     0.699440000000     0.001020000000    -0.206394   
N27      N      0.695270000000     0.297770000000     0.998620000000    -0.185911   
N28      N      0.794340000000     0.204710000000     0.004620000000    -0.208858   
N29      N      0.198180000000     0.797670000000     0.994230000000    -0.187356   
N30      N      0.297240000000     0.707990000000     0.985740000000    -0.210534   
N31      N      0.195610000000     0.201760000000     0.995550000000    -0.192839   
N32      N      0.292310000000     0.297000000000     0.002840000000    -0.210271   
N33      N      0.790890000000     0.995570000000     0.797990000000    -0.188749   
N34      N      0.696670000000     0.996270000000     0.701280000000    -0.209369   
N35      N      0.195360000000     0.006750000000     0.794570000000    -0.190392   
N36      N      0.293090000000     0.002220000000     0.701100000000    -0.20539    
N37      N      0.198500000000     0.997000000000     0.197180000000    -0.193315   
N38      N      0.296290000000     0.002890000000     0.291310000000    -0.206616   
N39      N      0.794980000000     0.003460000000     0.202710000000    -0.189508   
N40      N      0.700540000000     0.997350000000     0.300430000000    -0.210311   
N41      N      0.005740000000     0.198800000000     0.792880000000    -0.187218   
N42      N      0.008500000000     0.289280000000     0.693870000000    -0.210374   
N43      N      0.983740000000     0.795840000000     0.795790000000    -0.18745    
N44      N      0.981440000000     0.700900000000     0.698910000000    -0.207255   
N45      N      0.010100000000     0.699320000000     0.295750000000    -0.187078   
N46      N      0.012850000000     0.793950000000     0.198170000000    -0.209201   
N47      N      0.992800000000     0.199260000000     0.199780000000    -0.192192   
N48      N      0.987000000000     0.296260000000     0.294570000000    -0.211295   
O1       O      0.992430000000     0.171270000000     0.090460000000    -0.610491   
O2       O      0.003400000000     0.824130000000     0.089390000000    -0.555082   
O3       O      0.903990000000     0.003860000000     0.173200000000    -0.601935   
O4       O      0.088800000000     0.994910000000     0.170740000000    -0.615162   
O5       O      0.168970000000     0.995920000000     0.088190000000    -0.626171   
O6       O      0.821730000000     0.003010000000     0.092860000000    -0.567743   
O7       O      0.006830000000     0.904370000000     0.171370000000    -0.600108   
O8       O      0.994580000000     0.089600000000     0.172110000000    -0.620919   
O9       O      0.059550000000     0.934640000000     0.060510000000    -1.46467    
O10      O      0.933130000000     0.063180000000     0.062280000000    -1.44906    
O11      O      0.922440000000     0.925030000000     0.064030000000    -1.05992    
O12      O      0.061480000000     0.064770000000     0.063050000000    -1.64018    
O13      O      0.989350000000     0.823450000000     0.904970000000    -0.559987   
O14      O      0.009660000000     0.173000000000     0.902940000000    -0.575583   
O15      O      0.820460000000     0.906860000000     0.996710000000    -0.559698   
O16      O      0.169220000000     0.905770000000     0.004990000000    -0.603074   
O17      O      0.167310000000     0.092040000000     0.993640000000    -0.622003   
O18      O      0.821930000000     0.094330000000     0.003690000000    -0.563621   
O19      O      0.899860000000     0.994950000000     0.825010000000    -0.562319   
O20      O      0.086050000000     0.002510000000     0.822320000000    -0.565604   
O21      O      0.819320000000     0.999680000000     0.907160000000    -0.561196   
O22      O      0.167510000000     0.006520000000     0.903590000000    -0.614883   
O23      O      0.901930000000     0.825250000000     0.997130000000    -0.554753   
O24      O      0.903590000000     0.174680000000     0.002860000000    -0.593255   
O25      O      0.086460000000     0.174160000000     0.993970000000    -0.619309   
O26      O      0.088890000000     0.824150000000     0.990460000000    -0.543302   
O27      O      0.988350000000     0.905350000000     0.823770000000    -0.562596   
O28      O      0.993480000000     0.091460000000     0.822640000000    -0.572043   
O29      O      0.058140000000     0.062290000000     0.933350000000    -1.47338    
O30      O      0.930650000000     0.935930000000     0.935110000000    -1.36949    
O31      O      0.921030000000     0.065740000000     0.924810000000    -1.06067    
O32      O      0.060040000000     0.925520000000     0.922810000000    -1.0504     
O33      O      0.987950000000     0.323380000000     0.404570000000    -0.624344   
O34      O      0.000990000000     0.671780000000     0.405140000000    -0.563886   
O35      O      0.901100000000     0.495620000000     0.323650000000    -0.584429   
O36      O      0.084440000000     0.500380000000     0.325560000000    -0.608806   
O37      O      0.166390000000     0.499740000000     0.405580000000    -0.60953    
O38      O      0.819370000000     0.497300000000     0.403620000000    -0.562971   
O39      O      0.004750000000     0.589930000000     0.324150000000    -0.589872   
O40      O      0.989360000000     0.405770000000     0.324510000000    -0.60099    
O41      O      0.057990000000     0.559860000000     0.435340000000    -1.47157    
O42      O      0.929260000000     0.433330000000     0.433340000000    -1.46563    
O43      O      0.920570000000     0.571640000000     0.432240000000    -1.07008    
O44      O      0.059050000000     0.430790000000     0.432200000000    -1.64473    
O45      O      0.989590000000     0.671040000000     0.590420000000    -0.55699    
O46      O      0.997120000000     0.318690000000     0.586740000000    -0.615787   
O47      O      0.820270000000     0.590870000000     0.502770000000    -0.562472   
O48      O      0.168060000000     0.588670000000     0.493680000000    -0.613707   
O49      O      0.167080000000     0.404370000000     0.501780000000    -0.625192   
O50      O      0.818380000000     0.404930000000     0.492260000000    -0.570346   
O51      O      0.899410000000     0.494030000000     0.671580000000    -0.563226   
O52      O      0.083460000000     0.499440000000     0.675590000000    -0.567175   
O53      O      0.818290000000     0.498600000000     0.589960000000    -0.558725   
O54      O      0.165240000000     0.486030000000     0.595450000000    -0.574652   
O55      O      0.901700000000     0.672310000000     0.497570000000    -0.550546   
O56      O      0.899460000000     0.323170000000     0.491280000000    -0.608911   
O57      O      0.085020000000     0.323450000000     0.499960000000    -0.616713   
O58      O      0.087490000000     0.671030000000     0.495360000000    -0.564227   
O59      O      0.986200000000     0.590320000000     0.672190000000    -0.552648   
O60      O      0.006780000000     0.399470000000     0.669040000000    -0.540348   
O61      O      0.056220000000     0.432040000000     0.561470000000    -1.46058    
O62      O      0.930540000000     0.560090000000     0.561350000000    -1.36857    
O63      O      0.919480000000     0.430780000000     0.571160000000    -1.05943    
O64      O      0.059180000000     0.569990000000     0.572380000000    -1.05629    
O65      O      0.668810000000     0.994980000000     0.409180000000    -0.61127    
O66      O      0.322570000000     0.000690000000     0.401950000000    -0.551303   
O67      O      0.507100000000     0.905890000000     0.324310000000    -0.60391    
O68      O      0.490370000000     0.092300000000     0.325710000000    -0.606823   
O69      O      0.489430000000     0.172360000000     0.407930000000    -0.615331   
O70      O      0.502210000000     0.824740000000     0.405580000000    -0.547798   
O71      O      0.404980000000     0.003660000000     0.322530000000    -0.593548   
O72      O      0.589940000000     0.996620000000     0.326290000000    -0.614771   
O73      O      0.431800000000     0.061730000000     0.434440000000    -1.4613     
O74      O      0.558710000000     0.934340000000     0.435500000000    -1.47445    
O75      O      0.422270000000     0.924110000000     0.431300000000    -1.05814    
O76      O      0.560890000000     0.064790000000     0.433520000000    -1.647      
O77      O      0.320320000000     0.997260000000     0.590940000000    -0.547255   
O78      O      0.668070000000     0.002300000000     0.592280000000    -0.584932   
O79      O      0.402830000000     0.822900000000     0.497050000000    -0.549175   
O80      O      0.399360000000     0.171690000000     0.492190000000    -0.587426   
O81      O      0.586330000000     0.171810000000     0.503610000000    -0.61344    
O82      O      0.586720000000     0.823350000000     0.500330000000    -0.547      
O83      O      0.492900000000     0.904810000000     0.672970000000    -0.553592   
O84      O      0.499920000000     0.091910000000     0.672030000000    -0.560071   
O85      O      0.481910000000     0.823130000000     0.591840000000    -0.527725   
O86      O      0.500570000000     0.173970000000     0.591030000000    -0.607594   
O87      O      0.320940000000     0.902930000000     0.499160000000    -0.559235   
O88      O      0.668110000000     0.904110000000     0.494480000000    -0.585607   
O89      O      0.666690000000     0.089750000000     0.504360000000    -0.606792   
O90      O      0.320070000000     0.088950000000     0.493500000000    -0.559732   
O91      O      0.401650000000     0.997270000000     0.671720000000    -0.553756   
O92      O      0.587250000000     0.999440000000     0.673600000000    -0.563716   
O93      O      0.557740000000     0.062170000000     0.562670000000    -1.47328    
O94      O      0.430880000000     0.934590000000     0.561860000000    -1.37731    
O95      O      0.559460000000     0.923810000000     0.572870000000    -1.05706    
O96      O      0.420590000000     0.063370000000     0.571560000000    -1.0634     
O97      O      0.400750000000     0.327400000000     0.001770000000    -0.612291   
O98      O      0.403860000000     0.677620000000     0.997260000000    -0.578113   
O99      O      0.318170000000     0.497460000000     0.090570000000    -0.606395   
O100     O      0.318070000000     0.506390000000     0.906190000000    -0.610411   
O101     O      0.398510000000     0.497450000000     0.823970000000    -0.604858   
O102     O      0.399080000000     0.498710000000     0.172420000000    -0.571073   
O103     O      0.321710000000     0.597770000000     0.982720000000    -0.572809   
O104     O      0.319110000000     0.408070000000     0.001760000000    -0.605012   
O105     O      0.429930000000     0.564420000000     0.934060000000    -1.45965    
O106     O      0.428050000000     0.437340000000     0.061100000000    -1.46251    
O107     O      0.426930000000     0.575130000000     0.071230000000    -1.06313    
O108     O      0.426180000000     0.434280000000     0.932210000000    -1.62782    
O109     O      0.588530000000     0.673500000000     0.000300000000    -0.561352   
O110     O      0.585160000000     0.324530000000     0.994440000000    -0.587724   
O111     O      0.498150000000     0.593370000000     0.171690000000    -0.569211   
O112     O      0.476300000000     0.594980000000     0.824990000000    -0.580824   
O113     O      0.498360000000     0.406470000000     0.824650000000    -0.614929   
O114     O      0.486410000000     0.406950000000     0.171920000000    -0.569202   
O115     O      0.664790000000     0.503940000000     0.091130000000    -0.546048   
O116     O      0.664880000000     0.494200000000     0.904700000000    -0.550525   
O117     O      0.584160000000     0.503050000000     0.173280000000    -0.557885   
O118     O      0.585090000000     0.493940000000     0.822430000000    -0.601723   
O119     O      0.498900000000     0.675210000000     0.090430000000    -0.568923   
O120     O      0.484640000000     0.324880000000     0.091020000000    -0.593636   
O121     O      0.497680000000     0.326550000000     0.907120000000    -0.610048   
O122     O      0.491500000000     0.675800000000     0.906320000000    -0.580069   
O123     O      0.667460000000     0.590580000000     0.998830000000    -0.551829   
O124     O      0.665630000000     0.406660000000     0.997070000000    -0.563799   
O125     O      0.554860000000     0.435990000000     0.933880000000    -1.4695     
O126     O      0.556220000000     0.563180000000     0.061450000000    -1.3861     
O127     O      0.565250000000     0.434270000000     0.072060000000    -1.06683    
O128     O      0.566100000000     0.573300000000     0.930860000000    -1.06407    


