data_structure

_audit_creation_method RASPA-1.0
_audit_creation_date 2023-5-19
_audit_author_name 'Poobodin Mano'

_cell_length_a    20.6689
_cell_length_b    20.6693
_cell_length_c    20.6693
_cell_angle_alpha 90
_cell_angle_beta  90
_cell_angle_gamma 90
_cell_volume      8830.17

_symmetry_cell_setting          triclinic
_symmetry_space_group_name_Hall 'P 1'
_symmetry_space_group_name_H-M  'P 1'
_symmetry_Int_Tables_number     1

_symmetry_equiv_pos_as_xyz 'x,y,z'

loop_
_atom_site_label
_atom_site_type_symbol
_atom_site_fract_x
_atom_site_fract_y
_atom_site_fract_z
_atom_site_charge
C1       C      0.011750000000     0.173490000000     0.173460000000     0.502318   
C2       C      0.027680000000     0.863560000000     0.174110000000     0.509318   
C3       C      0.862550000000     0.023590000000     0.174600000000     0.507626   
C4       C      0.172690000000     0.016660000000     0.173150000000     0.504874   
C5       C      0.013940000000     0.863360000000     0.863140000000     0.497172   
C6       C      0.027450000000     0.174380000000     0.863620000000     0.509352   
C7       C      0.862580000000     0.863150000000     0.014530000000     0.497445   
C8       C      0.173530000000     0.863730000000     0.028210000000     0.509431   
C9       C      0.172540000000     0.173720000000     0.012690000000     0.502929   
C10      C      0.862680000000     0.174150000000     0.028430000000     0.50917    
C11      C      0.862630000000     0.018580000000     0.863120000000     0.498591   
C12      C      0.173710000000     0.024410000000     0.863420000000     0.510082   
C13      C      0.011750000000     0.363340000000     0.363300000000     0.502556   
C14      C      0.027480000000     0.673170000000     0.362410000000     0.508855   
C15      C      0.862680000000     0.508370000000     0.362600000000     0.509387   
C16      C      0.172510000000     0.524100000000     0.363090000000     0.503234   
C17      C      0.013940000000     0.673650000000     0.673440000000     0.497225   
C18      C      0.027650000000     0.362680000000     0.673240000000     0.509889   
C19      C      0.862630000000     0.673700000000     0.518200000000     0.49858    
C20      C      0.173670000000     0.673350000000     0.512370000000     0.510136   
C21      C      0.172700000000     0.363610000000     0.520130000000     0.505415   
C22      C      0.862580000000     0.362230000000     0.513180000000     0.508147   
C23      C      0.862580000000     0.522270000000     0.673610000000     0.498245   
C24      C      0.173570000000     0.508590000000     0.673080000000     0.510281   
C25      C      0.672550000000     0.015480000000     0.363600000000     0.504233   
C26      C      0.362520000000     0.024950000000     0.362210000000     0.507262   
C27      C      0.523270000000     0.863470000000     0.362540000000     0.510503   
C28      C      0.513840000000     0.173520000000     0.363240000000     0.5023     
C29      C      0.362570000000     0.017420000000     0.673530000000     0.499149   
C30      C      0.673580000000     0.025350000000     0.673270000000     0.508434   
C31      C      0.362540000000     0.863230000000     0.519360000000     0.499175   
C32      C      0.362520000000     0.174570000000     0.511840000000     0.508018   
C33      C      0.672580000000     0.173230000000     0.521290000000     0.504827   
C34      C      0.673570000000     0.863550000000     0.511440000000     0.508674   
C35      C      0.515260000000     0.863240000000     0.673530000000     0.497696   
C36      C      0.523220000000     0.174260000000     0.673340000000     0.511207   
C37      C      0.362460000000     0.363520000000     0.012580000000     0.502181   
C38      C      0.672380000000     0.362490000000     0.028500000000     0.509741   
C39      C      0.513130000000     0.362560000000     0.863350000000     0.510794   
C40      C      0.520070000000     0.363280000000     0.173480000000     0.503048   
C41      C      0.672980000000     0.673420000000     0.014640000000     0.497905   
C42      C      0.361930000000     0.673360000000     0.028150000000     0.508719   
C43      C      0.672980000000     0.522140000000     0.863330000000     0.498201   
C44      C      0.672380000000     0.508290000000     0.174270000000     0.510664   
C45      C      0.362430000000     0.524210000000     0.173300000000     0.503081   
C46      C      0.361960000000     0.508640000000     0.863440000000     0.508912   
C47      C      0.518960000000     0.673600000000     0.863170000000     0.498099   
C48      C      0.513180000000     0.673460000000     0.174240000000     0.511473   
C49      C      0.515680000000     0.204190000000     0.251940000000     0.0323424  
C50      C      0.515680000000     0.284810000000     0.332550000000     0.0324008  
C51      C      0.517940000000     0.332600000000     0.284770000000     0.0325175  
C52      C      0.517940000000     0.251980000000     0.204150000000     0.0324757  
C53      C      0.518820000000     0.752280000000     0.332630000000     0.0364894  
C54      C      0.521810000000     0.832500000000     0.251550000000     0.0382655  
C55      C      0.518000000000     0.784640000000     0.204130000000     0.0366394  
C56      C      0.515000000000     0.704420000000     0.285210000000     0.0384099  
C57      C      0.517680000000     0.704210000000     0.751920000000     0.0363194  
C58      C      0.517670000000     0.784850000000     0.832550000000     0.0364065  
C59      C      0.516240000000     0.832620000000     0.784780000000     0.0363893  
C60      C      0.516230000000     0.751990000000     0.704150000000     0.0363492  
C61      C      0.518740000000     0.204160000000     0.784530000000     0.0365825  
C62      C      0.521730000000     0.285240000000     0.704310000000     0.0383671  
C63      C      0.517920000000     0.332660000000     0.752170000000     0.0365284  
C64      C      0.514920000000     0.251580000000     0.832390000000     0.0383176  
C65      C      0.831700000000     0.251080000000     0.514300000000     0.0369718  
C66      C      0.751300000000     0.331960000000     0.515820000000     0.0356666  
C67      C      0.703440000000     0.284360000000     0.518770000000     0.0344899  
C68      C      0.783850000000     0.203490000000     0.517370000000     0.0338437  
C69      C      0.832340000000     0.784920000000     0.514090000000     0.0355717  
C70      C      0.751500000000     0.704470000000     0.515550000000     0.0360732  
C71      C      0.703880000000     0.752300000000     0.513030000000     0.0371148  
C72      C      0.784720000000     0.832750000000     0.511450000000     0.0384501  
C73      C      0.203460000000     0.252480000000     0.517270000000     0.0337827  
C74      C      0.283910000000     0.333310000000     0.515800000000     0.0332206  
C75      C      0.331720000000     0.285700000000     0.512660000000     0.0361722  
C76      C      0.251270000000     0.204870000000     0.514250000000     0.0348292  
C77      C      0.284770000000     0.704180000000     0.512760000000     0.0386413  
C78      C      0.203870000000     0.784590000000     0.514300000000     0.0373676  
C79      C      0.251450000000     0.832440000000     0.516900000000     0.0362083  
C80      C      0.332340000000     0.752020000000     0.515480000000     0.0357019  
C81      C      0.831650000000     0.504100000000     0.251650000000     0.0378111  
C82      C      0.751400000000     0.503850000000     0.332720000000     0.0357384  
C83      C      0.703380000000     0.503710000000     0.285240000000     0.0378085  
C84      C      0.783640000000     0.504170000000     0.204180000000     0.0361468  
C85      C      0.283820000000     0.526520000000     0.332390000000     0.0331506  
C86      C      0.203230000000     0.526140000000     0.251760000000     0.0327859  
C87      C      0.251080000000     0.526180000000     0.203950000000     0.0327834  
C88      C      0.331660000000     0.526550000000     0.284590000000     0.0330365  
C89      C      0.284570000000     0.504120000000     0.704100000000     0.0381607  
C90      C      0.203520000000     0.504570000000     0.784350000000     0.0364043  
C91      C      0.251000000000     0.504490000000     0.832370000000     0.0380035  
C92      C      0.332060000000     0.504250000000     0.752140000000     0.0361632  
C93      C      0.751350000000     0.524400000000     0.704290000000     0.0363839  
C94      C      0.832010000000     0.523760000000     0.784890000000     0.0363895  
C95      C      0.784240000000     0.523710000000     0.832690000000     0.0364234  
C96      C      0.703580000000     0.524360000000     0.752090000000     0.0364057  
C97      C      0.751360000000     0.832460000000     0.012410000000     0.0362854  
C98      C      0.832020000000     0.751860000000     0.013010000000     0.0362537  
C99      C      0.784250000000     0.704050000000     0.013050000000     0.0362895  
C100     C      0.703590000000     0.784660000000     0.012440000000     0.0363352  
C101     C      0.831650000000     0.285100000000     0.032680000000     0.0377232  
C102     C      0.751400000000     0.204030000000     0.032950000000     0.0357101  
C103     C      0.703370000000     0.251510000000     0.033090000000     0.0375777  
C104     C      0.783640000000     0.332560000000     0.032600000000     0.0360587  
C105     C      0.203480000000     0.752450000000     0.032230000000     0.0361785  
C106     C      0.284530000000     0.832700000000     0.032650000000     0.0381165  
C107     C      0.332020000000     0.784670000000     0.032520000000     0.0360431  
C108     C      0.250960000000     0.704430000000     0.032310000000     0.0379216  
C109     C      0.203260000000     0.285050000000     0.010680000000     0.0327045  
C110     C      0.283850000000     0.204420000000     0.010250000000     0.0331165  
C111     C      0.331700000000     0.252220000000     0.010220000000     0.0328157  
C112     C      0.251110000000     0.332860000000     0.010630000000     0.0326567  
C113     C      0.751500000000     0.021220000000     0.832360000000     0.0360216  
C114     C      0.832340000000     0.022740000000     0.751910000000     0.0355234  
C115     C      0.784720000000     0.025370000000     0.704080000000     0.0383103  
C116     C      0.703880000000     0.023750000000     0.784530000000     0.0370171  
C117     C      0.284800000000     0.024040000000     0.832580000000     0.03855    
C118     C      0.203910000000     0.022450000000     0.752170000000     0.0373035  
C119     C      0.251480000000     0.019860000000     0.704330000000     0.0360429  
C120     C      0.332370000000     0.021320000000     0.784740000000     0.0356741  
C121     C      0.203450000000     0.019500000000     0.284290000000     0.0336753  
C122     C      0.283900000000     0.021010000000     0.203450000000     0.0331459  
C123     C      0.331720000000     0.024150000000     0.251060000000     0.0359568  
C124     C      0.251270000000     0.022530000000     0.331900000000     0.0347566  
C125     C      0.831680000000     0.022500000000     0.285740000000     0.0369203  
C126     C      0.751270000000     0.020930000000     0.204870000000     0.0355859  
C127     C      0.703420000000     0.017980000000     0.252460000000     0.0342988  
C128     C      0.783820000000     0.019430000000     0.333340000000     0.0337534  
C129     C      0.031620000000     0.285350000000     0.832570000000     0.0380077  
C130     C      0.032010000000     0.204270000000     0.752350000000     0.0362697  
C131     C      0.032190000000     0.251730000000     0.704300000000     0.0380537  
C132     C      0.031590000000     0.332810000000     0.784540000000     0.0362935  
C133     C      0.011850000000     0.832730000000     0.751860000000     0.0362186  
C134     C      0.012400000000     0.752100000000     0.832490000000     0.0361421  
C135     C      0.012400000000     0.704310000000     0.784690000000     0.0362704  
C136     C      0.011850000000     0.784930000000     0.704060000000     0.0361303  
C137     C      0.032240000000     0.832490000000     0.285070000000     0.0380981  
C138     C      0.031640000000     0.752270000000     0.203980000000     0.0362895  
C139     C      0.031670000000     0.704220000000     0.251440000000     0.037933   
C140     C      0.032060000000     0.784440000000     0.332530000000     0.0362463  
C141     C      0.009380000000     0.204180000000     0.284780000000     0.0324837  
C142     C      0.009680000000     0.284800000000     0.204170000000     0.0324311  
C143     C      0.009680000000     0.332620000000     0.251990000000     0.0324035  
C144     C      0.009380000000     0.252010000000     0.332610000000     0.0325099  
Eu1      Eu     0.016980000000     0.017820000000     0.133310000000     3.48447    
Eu2      Eu     0.018020000000     0.903470000000     0.018690000000     3.04282    
Eu3      Eu     0.016940000000     0.133440000000     0.017830000000     3.47365    
Eu4      Eu     0.902570000000     0.018670000000     0.018830000000     3.04574    
Eu5      Eu     0.132570000000     0.018010000000     0.017730000000     3.50062    
Eu6      Eu     0.018050000000     0.018870000000     0.903370000000     3.05118    
Eu7      Eu     0.016890000000     0.518980000000     0.403360000000     3.47404    
Eu8      Eu     0.018010000000     0.633360000000     0.517910000000     3.03964    
Eu9      Eu     0.017020000000     0.403480000000     0.518950000000     3.4899     
Eu10     Eu     0.902570000000     0.518030000000     0.518050000000     3.05205    
Eu11     Eu     0.132570000000     0.519030000000     0.518810000000     3.51026    
Eu12     Eu     0.018060000000     0.518120000000     0.633390000000     3.0567     
Eu13     Eu     0.516840000000     0.017860000000     0.403440000000     3.48013    
Eu14     Eu     0.402480000000     0.018810000000     0.517920000000     3.0374     
Eu15     Eu     0.632330000000     0.017820000000     0.519010000000     3.47781    
Eu16     Eu     0.517860000000     0.903460000000     0.518010000000     3.04977    
Eu17     Eu     0.516870000000     0.133410000000     0.518920000000     3.50088    
Eu18     Eu     0.517900000000     0.018770000000     0.633340000000     3.04686    
Eu19     Eu     0.518190000000     0.403480000000     0.017800000000     3.48753    
Eu20     Eu     0.632710000000     0.517950000000     0.018780000000     3.0533     
Eu21     Eu     0.402730000000     0.519110000000     0.017710000000     3.4678     
Eu22     Eu     0.517490000000     0.518040000000     0.903390000000     3.05481    
Eu23     Eu     0.518160000000     0.518970000000     0.133370000000     3.50902    
Eu24     Eu     0.517450000000     0.633410000000     0.018730000000     3.05118    
H1       H      0.958620000000     0.958580000000     0.125510000000    -0.18075    
H2       H      0.111380000000     0.113220000000     0.112270000000     0.412243   
H3       H      0.957880000000     0.125960000000     0.958800000000    -0.170714   
H4       H      0.124820000000     0.958800000000     0.959300000000    -0.182628   
H5       H      0.957860000000     0.578020000000     0.410790000000    -0.171421   
H6       H      0.111380000000     0.424540000000     0.423560000000     0.41283    
H7       H      0.958640000000     0.411330000000     0.578190000000    -0.180968   
H8       H      0.124820000000     0.577490000000     0.577990000000    -0.184688   
H9       H      0.458110000000     0.959230000000     0.411370000000    -0.181083   
H10      H      0.611390000000     0.112540000000     0.424250000000     0.415525   
H11      H      0.624560000000     0.959050000000     0.577750000000    -0.179714   
H12      H      0.458140000000     0.125390000000     0.577520000000    -0.185035   
H13      H      0.577450000000     0.411300000000     0.959560000000    -0.182291   
H14      H      0.422930000000     0.424530000000     0.112250000000     0.41241    
H15      H      0.410320000000     0.578090000000     0.958700000000    -0.171951   
H16      H      0.577430000000     0.577190000000     0.125460000000    -0.186037   
H17      H      0.514970000000     0.154150000000     0.236250000000     0.0303844  
H18      H      0.514970000000     0.300500000000     0.382590000000     0.0303878  
H19      H      0.518680000000     0.382640000000     0.300460000000     0.0302884  
H20      H      0.518680000000     0.236290000000     0.154110000000     0.0302853  
H21      H      0.518790000000     0.736830000000     0.382750000000     0.0333603  
H22      H      0.524210000000     0.882420000000     0.235630000000     0.0327219  
H23      H      0.517990000000     0.800090000000     0.154010000000     0.0333086  
H24      H      0.512570000000     0.654510000000     0.301140000000     0.0323065  
H25      H      0.518150000000     0.654170000000     0.736240000000     0.0332102  
H26      H      0.518150000000     0.800540000000     0.882600000000     0.0334598  
H27      H      0.515790000000     0.882670000000     0.800470000000     0.0335463  
H28      H      0.515790000000     0.736300000000     0.654100000000     0.0332827  
H29      H      0.518710000000     0.154040000000     0.799970000000     0.033364   
H30      H      0.524140000000     0.301170000000     0.654400000000     0.0324649  
H31      H      0.517910000000     0.382780000000     0.736730000000     0.0333203  
H32      H      0.512490000000     0.235650000000     0.882300000000     0.0325654  
H33      H      0.881690000000     0.235270000000     0.512740000000     0.0321914  
H34      H      0.735750000000     0.382050000000     0.515450000000     0.0327464  
H35      H      0.653470000000     0.300200000000     0.520320000000     0.0311185  
H36      H      0.799400000000     0.153400000000     0.517710000000     0.031416   
H37      H      0.882420000000     0.800490000000     0.514300000000     0.0336783  
H38      H      0.735700000000     0.654480000000     0.517010000000     0.0331908  
H39      H      0.653790000000     0.736730000000     0.512850000000     0.0331456  
H40      H      0.800500000000     0.882750000000     0.510050000000     0.0329274  
H41      H      0.153470000000     0.236680000000     0.518890000000     0.0306706  
H42      H      0.299500000000     0.383390000000     0.516180000000     0.0306811  
H43      H      0.381710000000     0.301500000000     0.511090000000     0.0316887  
H44      H      0.235700000000     0.154790000000     0.513910000000     0.0322898  
H45      H      0.300590000000     0.654190000000     0.511310000000     0.0323833  
H46      H      0.153780000000     0.800130000000     0.514050000000     0.0331762  
H47      H      0.235620000000     0.882420000000     0.518340000000     0.0334147  
H48      H      0.382430000000     0.736460000000     0.515700000000     0.0335156  
H49      H      0.881630000000     0.504220000000     0.235720000000     0.0326573  
H50      H      0.735990000000     0.503710000000     0.382860000000     0.0329458  
H51      H      0.653400000000     0.503570000000     0.301150000000     0.0321593  
H52      H      0.799060000000     0.504250000000     0.154050000000     0.0331879  
H53      H      0.299490000000     0.526670000000     0.382440000000     0.0308944  
H54      H      0.153180000000     0.526020000000     0.236070000000     0.0304679  
H55      H      0.235420000000     0.526080000000     0.153890000000     0.0304873  
H56      H      0.381700000000     0.526720000000     0.300290000000     0.0307574  
H57      H      0.300480000000     0.503990000000     0.654120000000     0.0325559  
H58      H      0.153390000000     0.504650000000     0.799780000000     0.0332482  
H59      H      0.235060000000     0.504610000000     0.882350000000     0.0327334  
H60      H      0.382200000000     0.504110000000     0.736730000000     0.0333117  
H61      H      0.735650000000     0.524690000000     0.654240000000     0.0332027  
H62      H      0.882070000000     0.523550000000     0.800550000000     0.0334358  
H63      H      0.799930000000     0.523480000000     0.882740000000     0.0334444  
H64      H      0.653530000000     0.524620000000     0.736420000000     0.0333494  
H65      H      0.735650000000     0.882500000000     0.012140000000     0.0333155  
H66      H      0.882080000000     0.736200000000     0.013210000000     0.033304   
H67      H      0.799940000000     0.654000000000     0.013270000000     0.0331478  
H68      H      0.653540000000     0.800330000000     0.012200000000     0.0333044  
H69      H      0.881620000000     0.301030000000     0.032540000000     0.0325578  
H70      H      0.735990000000     0.153890000000     0.033110000000     0.0328129  
H71      H      0.653390000000     0.235610000000     0.033240000000     0.0321454  
H72      H      0.799070000000     0.382700000000     0.032510000000     0.0331512  
H73      H      0.153350000000     0.737030000000     0.032160000000     0.0331581  
H74      H      0.300440000000     0.882680000000     0.032770000000     0.0326734  
H75      H      0.382160000000     0.800070000000     0.032640000000     0.0333146  
H76      H      0.235030000000     0.654460000000     0.032200000000     0.0324554  
H77      H      0.153220000000     0.300730000000     0.010820000000     0.030368   
H78      H      0.299530000000     0.154360000000     0.010090000000     0.0307598  
H79      H      0.381740000000     0.236520000000     0.010030000000     0.0307127  
H80      H      0.235450000000     0.382920000000     0.010750000000     0.0304219  
H81      H      0.735700000000     0.019740000000     0.882350000000     0.0332486  
H82      H      0.882420000000     0.022540000000     0.736330000000     0.0334558  
H83      H      0.800510000000     0.026800000000     0.654080000000     0.0326428  
H84      H      0.653800000000     0.023900000000     0.800100000000     0.0331307  
H85      H      0.300620000000     0.025500000000     0.882570000000     0.0324793  
H86      H      0.153810000000     0.022690000000     0.736630000000     0.0329793  
H87      H      0.235650000000     0.018400000000     0.654340000000     0.0331163  
H88      H      0.382460000000     0.021120000000     0.800300000000     0.0334713  
H89      H      0.153470000000     0.017860000000     0.300090000000     0.030597   
H90      H      0.299490000000     0.020650000000     0.153380000000     0.0305661  
H91      H      0.381710000000     0.025740000000     0.235270000000     0.0316676  
H92      H      0.235690000000     0.022850000000     0.381980000000     0.032256   
H93      H      0.881660000000     0.024080000000     0.301560000000     0.032117   
H94      H      0.735720000000     0.021290000000     0.154780000000     0.03265    
H95      H      0.653440000000     0.016420000000     0.236630000000     0.0310656  
H96      H      0.799380000000     0.019100000000     0.383430000000     0.0313573  
H97      H      0.031420000000     0.301280000000     0.882540000000     0.0326126  
H98      H      0.032200000000     0.154130000000     0.736940000000     0.0332406  
H99      H      0.032400000000     0.235800000000     0.654330000000     0.0324512  
H100     H      0.031460000000     0.382950000000     0.799930000000     0.0332106  
H101     H      0.011620000000     0.882780000000     0.736190000000     0.0333505  
H102     H      0.012570000000     0.736410000000     0.882540000000     0.0333085  
H103     H      0.012580000000     0.654260000000     0.800380000000     0.0331499  
H104     H      0.011620000000     0.800600000000     0.654010000000     0.033263   
H105     H      0.032450000000     0.882460000000     0.301000000000     0.0326958  
H106     H      0.031510000000     0.736870000000     0.153840000000     0.0331525  
H107     H      0.031470000000     0.654260000000     0.235510000000     0.0324571  
H108     H      0.032250000000     0.799840000000     0.382670000000     0.0333997  
H109     H      0.009250000000     0.154130000000     0.300460000000     0.0304074  
H110     H      0.009760000000     0.300480000000     0.154130000000     0.0303384  
H111     H      0.009750000000     0.382670000000     0.236310000000     0.0303544  
H112     H      0.009250000000     0.236340000000     0.382660000000     0.0304121  
N1       N      0.514680000000     0.220540000000     0.316210000000    -0.200186   
N2       N      0.518980000000     0.316250000000     0.220500000000    -0.200312   
N3       N      0.521990000000     0.816350000000     0.315820000000    -0.197504   
N4       N      0.514750000000     0.720570000000     0.220940000000    -0.197854   
N5       N      0.518330000000     0.720600000000     0.816170000000    -0.194701   
N6       N      0.515630000000     0.816240000000     0.720530000000    -0.194602   
N7       N      0.521920000000     0.220970000000     0.720460000000    -0.197735   
N8       N      0.514680000000     0.315850000000     0.816240000000    -0.197621   
N9       N      0.815480000000     0.315360000000     0.513870000000    -0.197263   
N10      N      0.719670000000     0.220090000000     0.519600000000    -0.2002     
N11      N      0.815760000000     0.720750000000     0.516270000000    -0.194669   
N12      N      0.720450000000     0.816490000000     0.511390000000    -0.197278   
N13      N      0.219740000000     0.316740000000     0.518150000000    -0.200715   
N14      N      0.315450000000     0.221440000000     0.512290000000    -0.19765    
N15      N      0.220500000000     0.720430000000     0.512600000000    -0.197609   
N16      N      0.315710000000     0.816180000000     0.517630000000    -0.194762   
N17      N      0.815550000000     0.505060000000     0.315940000000    -0.19737    
N18      N      0.719480000000     0.505010000000     0.220960000000    -0.197678   
N19      N      0.219540000000     0.525770000000     0.316050000000    -0.199873   
N20      N      0.315360000000     0.525840000000     0.220300000000    -0.199889   
N21      N      0.220280000000     0.505380000000     0.720190000000    -0.197449   
N22      N      0.315290000000     0.505420000000     0.816290000000    -0.197145   
N23      N      0.815610000000     0.523640000000     0.720630000000    -0.194711   
N24      N      0.719980000000     0.523550000000     0.816340000000    -0.194663   
N25      N      0.815620000000     0.816110000000     0.013160000000    -0.194536   
N26      N      0.719990000000     0.720410000000     0.013230000000    -0.19466    
N27      N      0.815550000000     0.220810000000     0.031730000000    -0.197394   
N28      N      0.719480000000     0.315790000000     0.031780000000    -0.197497   
N29      N      0.220240000000     0.816620000000     0.031410000000    -0.197278   
N30      N      0.315250000000     0.720510000000     0.031360000000    -0.197145   
N31      N      0.219570000000     0.220760000000     0.011030000000    -0.199874   
N32      N      0.315390000000     0.316510000000     0.010950000000    -0.199714   
N33      N      0.815760000000     0.020530000000     0.816080000000    -0.194734   
N34      N      0.720460000000     0.025410000000     0.720340000000    -0.197272   
N35      N      0.220530000000     0.024180000000     0.816340000000    -0.197646   
N36      N      0.315740000000     0.019150000000     0.720590000000    -0.194817   
N37      N      0.219730000000     0.018640000000     0.220030000000    -0.200613   
N38      N      0.315450000000     0.024500000000     0.315330000000    -0.197481   
N39      N      0.815460000000     0.022900000000     0.221470000000    -0.197231   
N40      N      0.719640000000     0.017170000000     0.316740000000    -0.20011    
N41      N      0.030720000000     0.221060000000     0.816490000000    -0.197242   
N42      N      0.030860000000     0.316010000000     0.720380000000    -0.197398   
N43      N      0.012580000000     0.816360000000     0.816120000000    -0.19447    
N44      N      0.012580000000     0.720670000000     0.720430000000    -0.194577   
N45      N      0.030910000000     0.816420000000     0.220780000000    -0.197241   
N46      N      0.030770000000     0.720300000000     0.315740000000    -0.197171   
N47      N      0.010080000000     0.220510000000     0.220500000000    -0.199905   
N48      N      0.010080000000     0.316290000000     0.316280000000    -0.199931   
O1       O      0.013390000000     0.192550000000     0.111000000000    -0.624103   
O2       O      0.023620000000     0.844680000000     0.111770000000    -0.57062    
O3       O      0.925050000000     0.024320000000     0.193650000000    -0.609469   
O4       O      0.110230000000     0.016470000000     0.192270000000    -0.626291   
O5       O      0.191680000000     0.016760000000     0.110690000000    -0.629774   
O6       O      0.843690000000     0.021310000000     0.112130000000    -0.570436   
O7       O      0.027100000000     0.926010000000     0.193280000000    -0.608784   
O8       O      0.012710000000     0.110990000000     0.192450000000    -0.624409   
O9       O      0.081800000000     0.955690000000     0.082370000000    -1.46698    
O10      O      0.954570000000     0.082460000000     0.082490000000    -1.46485    
O11      O      0.944460000000     0.944960000000     0.084800000000    -1.05689    
O12      O      0.083960000000     0.085100000000     0.084820000000    -1.63742    
O13      O      0.015520000000     0.844310000000     0.925610000000    -0.562906   
O14      O      0.026060000000     0.193570000000     0.926040000000    -0.608951   
O15      O      0.843500000000     0.925610000000     0.015340000000    -0.564098   
O16      O      0.192640000000     0.926210000000     0.027650000000    -0.609598   
O17      O      0.191580000000     0.111240000000     0.013590000000    -0.625672   
O18      O      0.843820000000     0.111750000000     0.025180000000    -0.571877   
O19      O      0.925130000000     0.018670000000     0.844160000000    -0.565129   
O20      O      0.111260000000     0.021920000000     0.844540000000    -0.572012   
O21      O      0.843530000000     0.018370000000     0.925620000000    -0.563128   
O22      O      0.192800000000     0.024950000000     0.925870000000    -0.612229   
O23      O      0.925070000000     0.844170000000     0.016120000000    -0.563354   
O24      O      0.925090000000     0.193390000000     0.027050000000    -0.609322   
O25      O      0.110050000000     0.192710000000     0.014350000000    -0.623868   
O26      O      0.111190000000     0.844790000000     0.024190000000    -0.570405   
O27      O      0.014710000000     0.925860000000     0.844150000000    -0.563845   
O28      O      0.024260000000     0.111990000000     0.844720000000    -0.571995   
O29      O      0.081710000000     0.082610000000     0.955400000000    -1.46756    
O30      O      0.954570000000     0.955480000000     0.955200000000    -1.36728    
O31      O      0.944390000000     0.084940000000     0.945270000000    -1.06247    
O32      O      0.084110000000     0.945160000000     0.945150000000    -1.05671    
O33      O      0.012740000000     0.344350000000     0.425790000000    -0.625141   
O34      O      0.024280000000     0.692060000000     0.424810000000    -0.570444   
O35      O      0.925080000000     0.509730000000     0.343360000000    -0.609456   
O36      O      0.110020000000     0.522480000000     0.344090000000    -0.623306   
O37      O      0.191560000000     0.523180000000     0.425570000000    -0.626264   
O38      O      0.843810000000     0.511650000000     0.425000000000    -0.572646   
O39      O      0.026070000000     0.610750000000     0.343220000000    -0.609209   
O40      O      0.013350000000     0.425800000000     0.344240000000    -0.624039   
O41      O      0.081750000000     0.581290000000     0.454200000000    -1.46806    
O42      O      0.954570000000     0.454250000000     0.454380000000    -1.46638    
O43      O      0.944360000000     0.591570000000     0.451800000000    -1.0631     
O44      O      0.083960000000     0.451980000000     0.451670000000    -1.63937    
O45      O      0.014670000000     0.692620000000     0.610920000000    -0.562824   
O46      O      0.027090000000     0.343520000000     0.610780000000    -0.60977    
O47      O      0.843520000000     0.611210000000     0.518380000000    -0.564304   
O48      O      0.192780000000     0.610890000000     0.511870000000    -0.613098   
O49      O      0.191690000000     0.426070000000     0.520050000000    -0.630856   
O50      O      0.843720000000     0.424710000000     0.515430000000    -0.570764   
O51      O      0.925060000000     0.520660000000     0.692610000000    -0.56458    
O52      O      0.111240000000     0.512630000000     0.692040000000    -0.572088   
O53      O      0.843510000000     0.521500000000     0.611130000000    -0.564724   
O54      O      0.192670000000     0.509110000000     0.610600000000    -0.610982   
O55      O      0.925130000000     0.692630000000     0.518140000000    -0.563952   
O56      O      0.925070000000     0.343170000000     0.512480000000    -0.609796   
O57      O      0.110240000000     0.344500000000     0.520290000000    -0.627195   
O58      O      0.111230000000     0.692210000000     0.514830000000    -0.570345   
O59      O      0.015560000000     0.611190000000     0.692510000000    -0.565061   
O60      O      0.023600000000     0.425020000000     0.692140000000    -0.572233   
O61      O      0.081750000000     0.454420000000     0.581190000000    -1.47107    
O62      O      0.954570000000     0.581460000000     0.581440000000    -1.36943    
O63      O      0.944490000000     0.452040000000     0.591790000000    -1.05845    
O64      O      0.084110000000     0.591650000000     0.591630000000    -1.05729    
O65      O      0.691500000000     0.015670000000     0.426070000000    -0.6258     
O66      O      0.343630000000     0.022560000000     0.424660000000    -0.570134   
O67      O      0.524100000000     0.925910000000     0.343370000000    -0.609437   
O68      O      0.514220000000     0.111010000000     0.344250000000    -0.624735   
O69      O      0.514250000000     0.192550000000     0.425740000000    -0.626817   
O70      O      0.521110000000     0.844640000000     0.424970000000    -0.572814   
O71      O      0.425000000000     0.025450000000     0.343160000000    -0.609194   
O72      O      0.610100000000     0.015520000000     0.344470000000    -0.625494   
O73      O      0.454390000000     0.082790000000     0.454120000000    -1.46377    
O74      O      0.581730000000     0.955310000000     0.454120000000    -1.46067    
O75      O      0.444300000000     0.945290000000     0.452050000000    -1.0583     
O76      O      0.583820000000     0.084840000000     0.451960000000    -1.64231    
O77      O      0.343450000000     0.017420000000     0.611070000000    -0.563097   
O78      O      0.692620000000     0.025690000000     0.610790000000    -0.609033   
O79      O      0.425020000000     0.844270000000     0.519230000000    -0.565056   
O80      O      0.425010000000     0.193630000000     0.511360000000    -0.610957   
O81      O      0.610130000000     0.192380000000     0.521240000000    -0.627723   
O82      O      0.611130000000     0.844660000000     0.513990000000    -0.571085   
O83      O      0.515830000000     0.925740000000     0.692550000000    -0.562904   
O84      O      0.521080000000     0.111820000000     0.692150000000    -0.57263    
O85      O      0.515790000000     0.844230000000     0.611030000000    -0.563684   
O86      O      0.524080000000     0.193440000000     0.610900000000    -0.611812   
O87      O      0.343420000000     0.925700000000     0.519330000000    -0.562688   
O88      O      0.692610000000     0.926040000000     0.511130000000    -0.608256   
O89      O      0.691520000000     0.110760000000     0.521130000000    -0.625884   
O90      O      0.343650000000     0.112100000000     0.514190000000    -0.569752   
O91      O      0.425050000000     0.017560000000     0.692500000000    -0.564869   
O92      O      0.611140000000     0.022780000000     0.692170000000    -0.571175   
O93      O      0.581690000000     0.082770000000     0.581510000000    -1.46319    
O94      O      0.454350000000     0.955300000000     0.581560000000    -1.3649     
O95      O      0.583860000000     0.945170000000     0.591620000000    -1.06034    
O96      O      0.444330000000     0.084700000000     0.591450000000    -1.05674    
O97      O      0.343470000000     0.426010000000     0.014180000000    -0.623031   
O98      O      0.691340000000     0.424800000000     0.024390000000    -0.572032   
O99      O      0.512000000000     0.343380000000     0.925790000000    -0.610867   
O100     O      0.519840000000     0.344280000000     0.110980000000    -0.625442   
O101     O      0.519800000000     0.425770000000     0.192510000000    -0.627783   
O102     O      0.515270000000     0.425000000000     0.844540000000    -0.573925   
O103     O      0.609920000000     0.343380000000     0.027930000000    -0.609255   
O104     O      0.424950000000     0.344470000000     0.013520000000    -0.625047   
O105     O      0.580400000000     0.454350000000     0.082560000000    -1.47104    
O106     O      0.453630000000     0.454380000000     0.955330000000    -1.46492    
O107     O      0.591120000000     0.451930000000     0.945270000000    -1.05785    
O108     O      0.450960000000     0.452010000000     0.084790000000    -1.63873    
O109     O      0.691990000000     0.610940000000     0.016280000000    -0.564463   
O110     O      0.342700000000     0.610950000000     0.026840000000    -0.608824   
O111     O      0.610510000000     0.521420000000     0.844290000000    -0.564466   
O112     O      0.609920000000     0.508870000000     0.193400000000    -0.611183   
O113     O      0.424910000000     0.523240000000     0.192360000000    -0.627509   
O114     O      0.424380000000     0.511850000000     0.844600000000    -0.57203    
O115     O      0.518530000000     0.692620000000     0.925680000000    -0.563593   
O116     O      0.515290000000     0.692260000000     0.111790000000    -0.573558   
O117     O      0.518570000000     0.611100000000     0.844170000000    -0.56434    
O118     O      0.512030000000     0.611020000000     0.193420000000    -0.613363   
O119     O      0.691990000000     0.520470000000     0.925810000000    -0.564147   
O120     O      0.342720000000     0.509970000000     0.925860000000    -0.608004   
O121     O      0.343450000000     0.522630000000     0.110810000000    -0.623138   
O122     O      0.691330000000     0.512350000000     0.111950000000    -0.571778   
O123     O      0.610510000000     0.692480000000     0.015380000000    -0.563923   
O124     O      0.424350000000     0.692210000000     0.024920000000    -0.572017   
O125     O      0.453670000000     0.581480000000     0.082500000000    -1.46734    
O126     O      0.580800000000     0.581500000000     0.955360000000    -1.37179    
O127     O      0.451270000000     0.591680000000     0.945100000000    -1.06301    
O128     O      0.591090000000     0.591470000000     0.084820000000    -1.0563     


