data_structure

_audit_creation_method RASPA-1.0
_audit_creation_date 2023-5-19
_audit_author_name 'Poobodin Mano'

_cell_length_a    20.6925
_cell_length_b    20.7189
_cell_length_c    20.6991
_cell_angle_alpha 90
_cell_angle_beta  90
_cell_angle_gamma 90
_cell_volume      8874.24

_symmetry_cell_setting          triclinic
_symmetry_space_group_name_Hall 'P 1'
_symmetry_space_group_name_H-M  'P 1'
_symmetry_Int_Tables_number     1

_symmetry_equiv_pos_as_xyz 'x,y,z'

loop_
_atom_site_label
_atom_site_type_symbol
_atom_site_fract_x
_atom_site_fract_y
_atom_site_fract_z
_atom_site_charge
C1       C      0.991150000000     0.146580000000     0.147920000000     0.508446   
C2       C      0.005150000000     0.839530000000     0.150600000000     0.514661   
C3       C      0.840570000000     0.998160000000     0.151880000000     0.512244   
C4       C      0.148380000000     0.988410000000     0.146290000000     0.501802   
C5       C      0.982860000000     0.834560000000     0.839880000000     0.49834    
C6       C      0.004400000000     0.145270000000     0.835740000000     0.507207   
C7       C      0.833110000000     0.840590000000     0.993930000000     0.498741   
C8       C      0.143970000000     0.833070000000     0.004470000000     0.512711   
C9       C      0.151030000000     0.142830000000     0.988670000000     0.501446   
C10      C      0.840390000000     0.149740000000     0.000200000000     0.511568   
C11      C      0.833860000000     0.995270000000     0.840900000000     0.49568    
C12      C      0.147350000000     0.996830000000     0.837190000000     0.510498   
C13      C      0.985700000000     0.338890000000     0.336260000000     0.504856   
C14      C      0.007350000000     0.647020000000     0.337300000000     0.510407   
C15      C      0.839450000000     0.485470000000     0.333970000000     0.512058   
C16      C      0.149130000000     0.493410000000     0.340110000000     0.503115   
C17      C      0.987880000000     0.646580000000     0.647410000000     0.497237   
C18      C      0.996290000000     0.335930000000     0.646380000000     0.505611   
C19      C      0.842090000000     0.652800000000     0.488150000000     0.49883    
C20      C      0.152780000000     0.641360000000     0.486690000000     0.513176   
C21      C      0.141630000000     0.332890000000     0.495320000000     0.500913   
C22      C      0.831600000000     0.341530000000     0.482560000000     0.509217   
C23      C      0.832230000000     0.501910000000     0.642360000000     0.502574   
C24      C      0.143280000000     0.478160000000     0.650110000000     0.509303   
C25      C      0.647060000000     0.989950000000     0.338630000000     0.505706   
C26      C      0.338540000000     0.002090000000     0.332930000000     0.506776   
C27      C      0.499850000000     0.835660000000     0.338200000000     0.508702   
C28      C      0.486440000000     0.145070000000     0.334830000000     0.505246   
C29      C      0.334660000000     0.990770000000     0.644680000000     0.49878    
C30      C      0.645630000000     0.003210000000     0.647660000000     0.504342   
C31      C      0.339210000000     0.834800000000     0.491580000000     0.500079   
C32      C      0.331930000000     0.144420000000     0.483120000000     0.512224   
C33      C      0.642720000000     0.150130000000     0.493290000000     0.503784   
C34      C      0.649670000000     0.841030000000     0.486150000000     0.507042   
C35      C      0.488420000000     0.839930000000     0.648430000000     0.495884   
C36      C      0.491910000000     0.150460000000     0.643980000000     0.508943   
C37      C      0.338710000000     0.335510000000     0.986720000000     0.503508   
C38      C      0.646940000000     0.336260000000     0.992200000000     0.513774   
C39      C      0.481460000000     0.338440000000     0.834980000000     0.513507   
C40      C      0.497010000000     0.332620000000     0.142040000000     0.507434   
C41      C      0.644920000000     0.647970000000     0.989800000000     0.497689   
C42      C      0.334880000000     0.644440000000     0.006640000000     0.50987    
C43      C      0.643800000000     0.500850000000     0.834050000000     0.500604   
C44      C      0.650870000000     0.479100000000     0.142930000000     0.512679   
C45      C      0.340950000000     0.490240000000     0.150900000000     0.502272   
C46      C      0.333880000000     0.479900000000     0.838920000000     0.509429   
C47      C      0.488380000000     0.651340000000     0.841060000000     0.497785   
C48      C      0.487940000000     0.641970000000     0.152010000000     0.511061   
C49      C      0.492240000000     0.254940000000     0.301060000000     0.0339321  
C50      C      0.486240000000     0.172540000000     0.223300000000     0.0256816  
C51      C      0.495980000000     0.300930000000     0.251990000000     0.0302721  
C52      C      0.489270000000     0.218250000000     0.173330000000     0.056798   
C53      C      0.500680000000     0.801020000000     0.228370000000     0.0382356  
C54      C      0.490950000000     0.724430000000     0.311570000000     0.0292283  
C55      C      0.496170000000     0.751840000000     0.182580000000     0.0337565  
C56      C      0.485130000000     0.674560000000     0.266080000000     0.0602178  
C57      C      0.491420000000     0.729790000000     0.682140000000     0.0371412  
C58      C      0.482510000000     0.811920000000     0.759870000000     0.0282539  
C59      C      0.491410000000     0.683440000000     0.731120000000     0.0336448  
C60      C      0.481670000000     0.765820000000     0.809710000000     0.0609552  
C61      C      0.498230000000     0.260670000000     0.677000000000     0.0379653  
C62      C      0.471380000000     0.180250000000     0.752630000000     0.0292555  
C63      C      0.494150000000     0.307450000000     0.725460000000     0.0336075  
C64      C      0.464370000000     0.226960000000     0.801010000000     0.0599294  
C65      C      0.752930000000     0.183550000000     0.493810000000     0.034754   
C66      C      0.670850000000     0.260970000000     0.481490000000     0.0262933  
C67      C      0.799490000000     0.232040000000     0.489680000000     0.0352738  
C68      C      0.717250000000     0.310210000000     0.475930000000     0.0602665  
C69      C      0.683360000000     0.731130000000     0.490340000000     0.0378901  
C70      C      0.760950000000     0.812940000000     0.477350000000     0.0300129  
C71      C      0.732280000000     0.684840000000     0.490890000000     0.0334238  
C72      C      0.810720000000     0.766760000000     0.476760000000     0.0598948  
C73      C      0.251350000000     0.299830000000     0.503480000000     0.0336639  
C74      C      0.171880000000     0.223310000000     0.475850000000     0.0239327  
C75      C      0.298850000000     0.252440000000     0.499040000000     0.036153   
C76      C      0.219660000000     0.175440000000     0.469590000000     0.060373   
C77      C      0.229540000000     0.800320000000     0.493330000000     0.0365215  
C78      C      0.312440000000     0.723570000000     0.481760000000     0.0288113  
C79      C      0.183680000000     0.751190000000     0.491300000000     0.034982   
C80      C      0.266680000000     0.673660000000     0.477970000000     0.0610224  
C81      C      0.729170000000     0.484270000000     0.301180000000     0.0370093  
C82      C      0.811190000000     0.472580000000     0.223430000000     0.029566   
C83      C      0.682590000000     0.481560000000     0.252680000000     0.0358725  
C84      C      0.764820000000     0.469180000000     0.174120000000     0.0612657  
C85      C      0.183130000000     0.502890000000     0.230400000000     0.0342695  
C86      C      0.259800000000     0.480600000000     0.311150000000     0.0246941  
C87      C      0.231790000000     0.501550000000     0.183680000000     0.0311473  
C88      C      0.308940000000     0.476880000000     0.264370000000     0.0592988  
C89      C      0.175020000000     0.483250000000     0.760960000000     0.036526   
C90      C      0.252230000000     0.459820000000     0.680940000000     0.0303225  
C91      C      0.223580000000     0.483040000000     0.807910000000     0.0355511  
C92      C      0.301100000000     0.457800000000     0.727750000000     0.0599654  
C93      C      0.753910000000     0.499430000000     0.800800000000     0.0375845  
C94      C      0.671880000000     0.511470000000     0.723160000000     0.0281165  
C95      C      0.800330000000     0.500040000000     0.752100000000     0.0336761  
C96      C      0.718150000000     0.513320000000     0.673610000000     0.0612086  
C97      C      0.755090000000     0.681820000000     0.987070000000     0.037366   
C98      C      0.672590000000     0.759260000000     0.995620000000     0.0292052  
C99      C      0.801380000000     0.730790000000     0.988850000000     0.0334121  
C100     C      0.718580000000     0.809030000000     0.998350000000     0.0596566  
C101     C      0.806680000000     0.260040000000     0.001680000000     0.0402739  
C102     C      0.729440000000     0.177290000000     0.992970000000     0.0291947  
C103     C      0.757370000000     0.306020000000     0.998360000000     0.030787   
C104     C      0.679750000000     0.222770000000     0.987590000000     0.0609871  
C105     C      0.302420000000     0.754710000000     0.005140000000     0.037626   
C106     C      0.224400000000     0.673360000000     0.018850000000     0.0298344  
C107     C      0.253830000000     0.801280000000     0.004820000000     0.0363878  
C108     C      0.175050000000     0.719790000000     0.019800000000     0.060554   
C109     C      0.229360000000     0.300960000000     0.975910000000     0.0339548  
C110     C      0.310320000000     0.225040000000     0.999900000000     0.0228702  
C111     C      0.183090000000     0.251940000000     0.976570000000     0.0315647  
C112     C      0.263850000000     0.175730000000     0.003690000000     0.0596948  
C113     C      0.755960000000     0.999190000000     0.681460000000     0.0382027  
C114     C      0.673680000000     0.008050000000     0.759090000000     0.0289212  
C115     C      0.802200000000     0.996430000000     0.730660000000     0.0324808  
C116     C      0.719640000000     0.006410000000     0.809100000000     0.0610402  
C117     C      0.224470000000     0.983700000000     0.678300000000     0.03665    
C118     C      0.305510000000     0.008350000000     0.754050000000     0.0299054  
C119     C      0.178000000000     0.986310000000     0.727250000000     0.034295   
C120     C      0.259170000000     0.013570000000     0.803060000000     0.0600586  
C121     C      0.256010000000     0.967920000000     0.180990000000     0.0344857  
C122     C      0.184220000000     0.024200000000     0.249200000000     0.0250572  
C123     C      0.304150000000     0.972580000000     0.228040000000     0.0365978  
C124     C      0.234310000000     0.034700000000     0.293630000000     0.0638739  
C125     C      0.681110000000     0.997250000000     0.228800000000     0.0332089  
C126     C      0.758430000000     0.986100000000     0.311250000000     0.0272357  
C127     C      0.730440000000     0.000140000000     0.182940000000     0.0357471  
C128     C      0.808520000000     0.987540000000     0.265650000000     0.0602737  
C129     C      0.995550000000     0.303400000000     0.756990000000     0.0354398  
C130     C      0.013230000000     0.226100000000     0.675750000000     0.0295737  
C131     C      0.998750000000     0.255050000000     0.803900000000     0.0346573  
C132     C      0.018210000000     0.177230000000     0.722570000000     0.0603563  
C133     C      0.990670000000     0.756870000000     0.680840000000     0.0367018  
C134     C      0.974150000000     0.675140000000     0.757810000000     0.0280982  
C135     C      0.988650000000     0.803280000000     0.729780000000     0.0336261  
C136     C      0.970640000000     0.721290000000     0.807320000000     0.0613229  
C137     C      0.002020000000     0.680600000000     0.227500000000     0.0401454  
C138     C      0.024030000000     0.756870000000     0.308710000000     0.029928   
C139     C      0.001230000000     0.729650000000     0.181490000000     0.0344787  
C140     C      0.025710000000     0.806470000000     0.262540000000     0.059044   
C141     C      0.983570000000     0.305700000000     0.225650000000     0.0340647  
C142     C      0.990920000000     0.228060000000     0.308070000000     0.0256492  
C143     C      0.985400000000     0.256680000000     0.179220000000     0.0296851  
C144     C      0.994380000000     0.178490000000     0.262190000000     0.0563584  
Eu1      Eu     0.993260000000     0.992210000000     0.107030000000     3.54388    
Eu2      Eu     0.990050000000     0.876840000000     0.994490000000     3.04454    
Eu3      Eu     0.994170000000     0.106930000000     0.991400000000     3.44809    
Eu4      Eu     0.878110000000     0.994250000000     0.995190000000     3.03683    
Eu5      Eu     0.106860000000     0.988220000000     0.991190000000     3.4982     
Eu6      Eu     0.991250000000     0.990750000000     0.877860000000     3.03096    
Eu7      Eu     0.993050000000     0.493340000000     0.377090000000     3.49032    
Eu8      Eu     0.995730000000     0.606770000000     0.492230000000     3.03952    
Eu9      Eu     0.987400000000     0.377700000000     0.492190000000     3.48066    
Eu10     Eu     0.877030000000     0.495610000000     0.489120000000     3.06366    
Eu11     Eu     0.105900000000     0.489120000000     0.495010000000     3.51691    
Eu12     Eu     0.989260000000     0.491440000000     0.607200000000     3.04608    
Eu13     Eu     0.491390000000     0.990300000000     0.376700000000     3.47935    
Eu14     Eu     0.375690000000     0.991000000000     0.489650000000     3.04208    
Eu15     Eu     0.605540000000     0.994130000000     0.493440000000     3.46639    
Eu16     Eu     0.493270000000     0.878040000000     0.492630000000     3.04577    
Eu17     Eu     0.488030000000     0.107480000000     0.490560000000     3.50511    
Eu18     Eu     0.490170000000     0.994580000000     0.605900000000     3.04561    
Eu19     Eu     0.493300000000     0.378110000000     0.988470000000     3.55101    
Eu20     Eu     0.606890000000     0.492210000000     0.989260000000     3.03809    
Eu21     Eu     0.376530000000     0.491140000000     0.993290000000     3.46513    
Eu22     Eu     0.489160000000     0.494220000000     0.876620000000     3.05232    
Eu23     Eu     0.495170000000     0.489250000000     0.106250000000     3.49277    
Eu24     Eu     0.490150000000     0.605950000000     0.995050000000     3.04423    
H1       H      0.934330000000     0.933520000000     0.101340000000    -0.185203   
H2       H      0.088900000000     0.084720000000     0.085030000000     0.41596    
H3       H      0.934900000000     0.099530000000     0.932850000000    -0.172159   
H4       H      0.097560000000     0.928990000000     0.932660000000    -0.174372   
H5       H      0.935700000000     0.553910000000     0.383560000000    -0.171854   
H6       H      0.084190000000     0.396440000000     0.398940000000     0.414918   
H7       H      0.927980000000     0.386770000000     0.550460000000    -0.176077   
H8       H      0.099220000000     0.547940000000     0.554030000000    -0.18056    
H9       H      0.432510000000     0.931420000000     0.384320000000    -0.173697   
H10      H      0.583930000000     0.086680000000     0.397270000000     0.414935   
H11      H      0.598250000000     0.935830000000     0.552540000000    -0.178109   
H12      H      0.428920000000     0.099080000000     0.548590000000    -0.185594   
H13      H      0.550610000000     0.386980000000     0.928420000000    -0.185374   
H14      H      0.400090000000     0.395100000000     0.084980000000     0.417652   
H15      H      0.382290000000     0.551180000000     0.935130000000    -0.170273   
H16      H      0.553630000000     0.548500000000     0.098820000000    -0.175324   
H17      H      0.500180000000     0.350800000000     0.267270000000     0.0337152  
H18      H      0.493860000000     0.271940000000     0.350580000000     0.0302057  
H19      H      0.482120000000     0.121830000000     0.210450000000     0.0372985  
H20      H      0.499380000000     0.766460000000     0.132390000000     0.0351657  
H21      H      0.506300000000     0.850080000000     0.211020000000     0.0328301  
H22      H      0.487790000000     0.712110000000     0.362530000000     0.0379809  
H23      H      0.495670000000     0.633560000000     0.715880000000     0.0350616  
H24      H      0.495340000000     0.712970000000     0.632700000000     0.0336062  
H25      H      0.478320000000     0.862610000000     0.772740000000     0.0386027  
H26      H      0.505460000000     0.356700000000     0.711850000000     0.0338981  
H27      H      0.511210000000     0.276270000000     0.628710000000     0.0332174  
H28      H      0.460110000000     0.130370000000     0.764480000000     0.0370217  
H29      H      0.849420000000     0.216840000000     0.494140000000     0.033626   
H30      H      0.769660000000     0.134400000000     0.500460000000     0.03272    
H31      H      0.620100000000     0.273750000000     0.476880000000     0.0348719  
H32      H      0.717090000000     0.635150000000     0.496920000000     0.0358593  
H33      H      0.634000000000     0.714420000000     0.495770000000     0.033317   
H34      H      0.773640000000     0.863450000000     0.470900000000     0.0377745  
H35      H      0.348010000000     0.266840000000     0.510120000000     0.0316718  
H36      H      0.266590000000     0.348080000000     0.516910000000     0.032668   
H37      H      0.122410000000     0.210730000000     0.463850000000     0.0322455  
H38      H      0.133660000000     0.766000000000     0.496080000000     0.0347431  
H39      H      0.212340000000     0.849410000000     0.499150000000     0.0333     
H40      H      0.363270000000     0.711350000000     0.476610000000     0.0380513  
H41      H      0.632680000000     0.486160000000     0.267930000000     0.0338974  
H42      H      0.712530000000     0.490290000000     0.350470000000     0.0342855  
H43      H      0.861890000000     0.467670000000     0.210580000000     0.0375772  
H44      H      0.217280000000     0.511620000000     0.134360000000     0.0327614  
H45      H      0.134300000000     0.513140000000     0.214390000000     0.0324857  
H46      H      0.272090000000     0.470770000000     0.361250000000     0.0347472  
H47      H      0.209140000000     0.493660000000     0.857130000000     0.032017   
H48      H      0.126000000000     0.493350000000     0.776460000000     0.0332203  
H49      H      0.264790000000     0.448550000000     0.631200000000     0.0379444  
H50      H      0.850160000000     0.494870000000     0.767410000000     0.0339312  
H51      H      0.770650000000     0.494060000000     0.850140000000     0.0333294  
H52      H      0.621210000000     0.517070000000     0.710440000000     0.0370805  
H53      H      0.851400000000     0.715690000000     0.985800000000     0.034981   
H54      H      0.772070000000     0.632480000000     0.982940000000     0.0337329  
H55      H      0.621750000000     0.772040000000     0.999100000000     0.0384071  
H56      H      0.771910000000     0.356140000000     0.000760000000     0.035955   
H57      H      0.856020000000     0.277020000000     0.006300000000     0.0306797  
H58      H      0.716710000000     0.126510000000     0.989540000000     0.0387595  
H59      H      0.269170000000     0.850910000000     0.998420000000     0.0333647  
H60      H      0.351860000000     0.771050000000     0.999290000000     0.033122   
H61      H      0.211490000000     0.622970000000     0.025800000000     0.0363047  
H62      H      0.133840000000     0.265920000000     0.965400000000     0.0335209  
H63      H      0.213300000000     0.349580000000     0.965030000000     0.0325188  
H64      H      0.360290000000     0.213270000000     0.010950000000     0.036208   
H65      H      0.852100000000     0.991410000000     0.715530000000     0.0351825  
H66      H      0.772840000000     0.996060000000     0.631980000000     0.0326476  
H67      H      0.622990000000     0.013310000000     0.771850000000     0.0386211  
H68      H      0.128560000000     0.975690000000     0.713560000000     0.0334713  
H69      H      0.208450000000     0.972210000000     0.629770000000     0.0334781  
H70      H      0.355550000000     0.019160000000     0.765900000000     0.0373877  
H71      H      0.350020000000     0.949080000000     0.218520000000     0.0314237  
H72      H      0.267110000000     0.942510000000     0.136530000000     0.0343425  
H73      H      0.138820000000     0.049300000000     0.256670000000     0.0300415  
H74      H      0.715650000000     0.006420000000     0.133080000000     0.0353077  
H75      H      0.631700000000     0.001360000000     0.211850000000     0.0321549  
H76      H      0.770970000000     0.979640000000     0.361850000000     0.0370865  
H77      H      0.991530000000     0.269920000000     0.853600000000     0.0316585  
H78      H      0.986890000000     0.352410000000     0.773180000000     0.0325486  
H79      H      0.020840000000     0.213420000000     0.625370000000     0.0391471  
H80      H      0.995570000000     0.853030000000     0.715100000000     0.0333893  
H81      H      0.998400000000     0.773410000000     0.631740000000     0.0332412  
H82      H      0.966920000000     0.624690000000     0.770300000000     0.037952   
H83      H      0.990430000000     0.715310000000     0.132310000000     0.0341657  
H84      H      0.992430000000     0.631790000000     0.211180000000     0.0309368  
H85      H      0.034520000000     0.768740000000     0.358790000000     0.0383749  
H86      H      0.982220000000     0.271540000000     0.129100000000     0.0319856  
H87      H      0.979520000000     0.355120000000     0.208910000000     0.0306734  
H88      H      0.994070000000     0.215140000000     0.358890000000     0.0343479  
N1       N      0.487830000000     0.190760000000     0.286760000000    -0.200119   
N2       N      0.494550000000     0.283730000000     0.187790000000    -0.200874   
N3       N      0.498180000000     0.787340000000     0.292820000000    -0.196475   
N4       N      0.489000000000     0.688220000000     0.200390000000    -0.197196   
N5       N      0.487450000000     0.794030000000     0.696460000000    -0.193179   
N6       N      0.487070000000     0.700350000000     0.795270000000    -0.194351   
N7       N      0.488210000000     0.197010000000     0.690990000000    -0.19668    
N8       N      0.478930000000     0.291120000000     0.787980000000    -0.198357   
N9       N      0.688630000000     0.197990000000     0.490320000000    -0.199056   
N10      N      0.782660000000     0.295800000000     0.481920000000    -0.197437   
N11      N      0.697670000000     0.795210000000     0.484510000000    -0.195997   
N12      N      0.796340000000     0.701650000000     0.485230000000    -0.194638   
N13      N      0.187810000000     0.285290000000     0.492560000000    -0.198374   
N14      N      0.283510000000     0.190000000000     0.483310000000    -0.200272   
N15      N      0.293890000000     0.786490000000     0.489440000000    -0.194467   
N16      N      0.201240000000     0.687450000000     0.484800000000    -0.19804    
N17      N      0.793440000000     0.480940000000     0.286470000000    -0.19704    
N18      N      0.699510000000     0.475850000000     0.188720000000    -0.198406   
N19      N      0.197130000000     0.492890000000     0.294150000000    -0.198894   
N20      N      0.295080000000     0.489270000000     0.199740000000    -0.200539   
N21      N      0.189750000000     0.473720000000     0.697270000000    -0.196265   
N22      N      0.287150000000     0.472960000000     0.791650000000    -0.197825   
N23      N      0.689680000000     0.503900000000     0.786280000000    -0.194763   
N24      N      0.783440000000     0.505500000000     0.688090000000    -0.195765   
N25      N      0.690730000000     0.696000000000     0.990350000000    -0.193722   
N26      N      0.784220000000     0.794750000000     0.993870000000    -0.194532   
N27      N      0.792610000000     0.195720000000     0.999300000000    -0.198001   
N28      N      0.693560000000     0.288300000000     0.992500000000    -0.197522   
N29      N      0.287570000000     0.690690000000     0.010440000000    -0.196894   
N30      N      0.189730000000     0.784630000000     0.010120000000    -0.197887   
N31      N      0.293010000000     0.287420000000     0.986840000000    -0.198961   
N32      N      0.199490000000     0.188960000000     0.989710000000    -0.20147    
N33      N      0.691650000000     0.003970000000     0.695660000000    -0.194743   
N34      N      0.785100000000     0.999200000000     0.794860000000    -0.193889   
N35      N      0.288300000000     0.993450000000     0.692030000000    -0.194455   
N36      N      0.194770000000     0.999630000000     0.790140000000    -0.198153   
N37      N      0.195600000000     0.991970000000     0.192550000000    -0.198969   
N38      N      0.292550000000     0.003780000000     0.285290000000    -0.200635   
N39      N      0.695140000000     0.990890000000     0.292950000000    -0.199322   
N40      N      0.794450000000     0.995730000000     0.200350000000    -0.198103   
N41      N      0.001260000000     0.288750000000     0.692850000000    -0.194723   
N42      N      0.007950000000     0.191440000000     0.787430000000    -0.196686   
N43      N      0.984570000000     0.692760000000     0.694990000000    -0.193591   
N44      N      0.980150000000     0.786340000000     0.793490000000    -0.195234   
N45      N      0.011390000000     0.694470000000     0.291280000000    -0.197083   
N46      N      0.011260000000     0.793070000000     0.198280000000    -0.197889   
N47      N      0.986130000000     0.291310000000     0.290020000000    -0.200021   
N48      N      0.990510000000     0.192750000000     0.196470000000    -0.200657   
O1       O      0.992640000000     0.166160000000     0.085480000000    -0.61336    
O2       O      0.998040000000     0.819710000000     0.088760000000    -0.563869   
O3       O      0.903310000000     0.999870000000     0.168470000000    -0.618644   
O4       O      0.086380000000     0.993260000000     0.165750000000    -0.628985   
O5       O      0.166880000000     0.983460000000     0.083920000000    -0.617213   
O6       O      0.820520000000     0.996920000000     0.089720000000    -0.563242   
O7       O      0.004360000000     0.902100000000     0.167880000000    -0.61637    
O8       O      0.989950000000     0.084200000000     0.165100000000    -0.638      
O9       O      0.055650000000     0.928020000000     0.056610000000    -1.48293    
O10      O      0.931500000000     0.058030000000     0.057230000000    -1.46395    
O11      O      0.918770000000     0.920300000000     0.061100000000    -1.06376    
O12      O      0.060850000000     0.057350000000     0.057620000000    -1.64415    
O13      O      0.985710000000     0.817400000000     0.902520000000    -0.567337   
O14      O      0.004480000000     0.165250000000     0.898020000000    -0.600929   
O15      O      0.816990000000     0.903450000000     0.992900000000    -0.564585   
O16      O      0.164530000000     0.895000000000     0.002420000000    -0.604171   
O17      O      0.167690000000     0.079930000000     0.987970000000    -0.623212   
O18      O      0.821580000000     0.087520000000     0.999390000000    -0.579786   
O19      O      0.896100000000     0.993310000000     0.820560000000    -0.551702   
O20      O      0.084800000000     0.993750000000     0.818390000000    -0.564223   
O21      O      0.817500000000     0.994590000000     0.903780000000    -0.560901   
O22      O      0.165830000000     0.994650000000     0.899470000000    -0.621178   
O23      O      0.895160000000     0.819990000000     0.994990000000    -0.559646   
O24      O      0.902870000000     0.168840000000     0.999200000000    -0.604298   
O25      O      0.089010000000     0.163400000000     0.988580000000    -0.622255   
O26      O      0.081380000000     0.816450000000     0.999200000000    -0.571976   
O27      O      0.985030000000     0.896750000000     0.819930000000    -0.561536   
O28      O      0.997850000000     0.082940000000     0.818520000000    -0.570463   
O29      O      0.056680000000     0.053420000000     0.929010000000    -1.45646    
O30      O      0.927200000000     0.929450000000     0.931190000000    -1.36469    
O31      O      0.920080000000     0.058740000000     0.920370000000    -1.05449    
O32      O      0.056170000000     0.916230000000     0.919660000000    -1.0574     
O33      O      0.984170000000     0.320260000000     0.398740000000    -0.628744   
O34      O      0.005440000000     0.665370000000     0.399780000000    -0.569692   
O35      O      0.902180000000     0.484950000000     0.316110000000    -0.613047   
O36      O      0.087190000000     0.495550000000     0.319790000000    -0.625114   
O37      O      0.166700000000     0.490310000000     0.402920000000    -0.624818   
O38      O      0.819400000000     0.490700000000     0.395680000000    -0.575269   
O39      O      0.003540000000     0.585050000000     0.317480000000    -0.610463   
O40      O      0.988760000000     0.401020000000     0.316930000000    -0.623352   
O41      O      0.058750000000     0.553020000000     0.429560000000    -1.47083    
O42      O      0.928050000000     0.430420000000     0.426530000000    -1.46893    
O43      O      0.922180000000     0.567870000000     0.424350000000    -1.06681    
O44      O      0.056890000000     0.424360000000     0.426550000000    -1.64296    
O45      O      0.992420000000     0.666070000000     0.585290000000    -0.559762   
O46      O      0.996490000000     0.317510000000     0.583770000000    -0.60971    
O47      O      0.821190000000     0.590920000000     0.487650000000    -0.55822    
O48      O      0.169000000000     0.578470000000     0.488340000000    -0.615997   
O49      O      0.162080000000     0.394680000000     0.498120000000    -0.628948   
O50      O      0.815680000000     0.404440000000     0.485610000000    -0.568814   
O51      O      0.894090000000     0.497540000000     0.663170000000    -0.560162   
O52      O      0.081030000000     0.485130000000     0.668320000000    -0.567894   
O53      O      0.815990000000     0.500940000000     0.579550000000    -0.573288   
O54      O      0.162970000000     0.476850000000     0.587920000000    -0.613517   
O55      O      0.905090000000     0.668720000000     0.491000000000    -0.563804   
O56      O      0.893530000000     0.320620000000     0.483340000000    -0.607704   
O57      O      0.078760000000     0.315460000000     0.492710000000    -0.619478   
O58      O      0.090940000000     0.662030000000     0.489110000000    -0.570302   
O59      O      0.986690000000     0.584110000000     0.665850000000    -0.567339   
O60      O      0.991410000000     0.397960000000     0.665810000000    -0.56962    
O61      O      0.051980000000     0.426230000000     0.556070000000    -1.47269    
O62      O      0.929350000000     0.556830000000     0.553970000000    -1.37044    
O63      O      0.914830000000     0.427950000000     0.563560000000    -1.0589     
O64      O      0.058620000000     0.562880000000     0.567070000000    -1.05777    
O65      O      0.664950000000     0.991040000000     0.401280000000    -0.627674   
O66      O      0.318420000000     0.001340000000     0.395030000000    -0.55704    
O67      O      0.500460000000     0.897600000000     0.317800000000    -0.607183   
O68      O      0.487670000000     0.082420000000     0.317060000000    -0.626551   
O69      O      0.485860000000     0.165320000000     0.396810000000    -0.628918   
O70      O      0.497710000000     0.818270000000     0.400890000000    -0.576209   
O71      O      0.400920000000     0.996820000000     0.314740000000    -0.61074    
O72      O      0.585040000000     0.989450000000     0.318440000000    -0.625034   
O73      O      0.427590000000     0.054760000000     0.425910000000    -1.46522    
O74      O      0.556810000000     0.929970000000     0.428880000000    -1.45986    
O75      O      0.419370000000     0.917600000000     0.425260000000    -1.06381    
O76      O      0.556490000000     0.059070000000     0.425050000000    -1.63607    
O77      O      0.315520000000     0.988080000000     0.582330000000    -0.556912   
O78      O      0.665530000000     0.002460000000     0.585520000000    -0.604892   
O79      O      0.401990000000     0.817420000000     0.492950000000    -0.568245   
O80      O      0.394030000000     0.164940000000     0.482480000000    -0.607223   
O81      O      0.579960000000     0.167850000000     0.492020000000    -0.629634   
O82      O      0.587710000000     0.820890000000     0.489750000000    -0.567134   
O83      O      0.487840000000     0.902650000000     0.666200000000    -0.563623   
O84      O      0.489900000000     0.088240000000     0.663050000000    -0.573393   
O85      O      0.490840000000     0.819890000000     0.586380000000    -0.560378   
O86      O      0.494520000000     0.169250000000     0.581570000000    -0.608888   
O87      O      0.318560000000     0.896660000000     0.490320000000    -0.564993   
O88      O      0.667280000000     0.903750000000     0.485400000000    -0.606532   
O89      O      0.662960000000     0.088200000000     0.495150000000    -0.62227    
O90      O      0.314980000000     0.081960000000     0.487400000000    -0.573427   
O91      O      0.397020000000     0.993310000000     0.663540000000    -0.567108   
O92      O      0.582870000000     0.000980000000     0.665470000000    -0.568643   
O93      O      0.553250000000     0.059040000000     0.554310000000    -1.46247    
O94      O      0.428220000000     0.929570000000     0.554500000000    -1.36629    
O95      O      0.557680000000     0.921610000000     0.566270000000    -1.06266    
O96      O      0.415840000000     0.058310000000     0.562690000000    -1.05559    
O97      O      0.318400000000     0.397450000000     0.988090000000    -0.620732   
O98      O      0.666150000000     0.398590000000     0.989440000000    -0.562301   
O99      O      0.483960000000     0.319690000000     0.897070000000    -0.624215   
O100     O      0.497010000000     0.316750000000     0.079110000000    -0.632094   
O101     O      0.497410000000     0.394480000000     0.162850000000    -0.623276   
O102     O      0.484870000000     0.401010000000     0.816450000000    -0.56112    
O103     O      0.584510000000     0.318800000000     0.995090000000    -0.620764   
O104     O      0.401440000000     0.317820000000     0.987000000000    -0.630384   
O105     O      0.557130000000     0.426780000000     0.052910000000    -1.47369    
O106     O      0.427150000000     0.429180000000     0.928570000000    -1.47865    
O107     O      0.563990000000     0.427950000000     0.915130000000    -1.06141    
O108     O      0.427120000000     0.423620000000     0.057710000000    -1.65034    
O109     O      0.665050000000     0.585950000000     0.988170000000    -0.557634   
O110     O      0.316390000000     0.581970000000     0.005420000000    -0.617481   
O111     O      0.581000000000     0.500240000000     0.816310000000    -0.569211   
O112     O      0.588810000000     0.478230000000     0.163450000000    -0.605656   
O113     O      0.403900000000     0.491130000000     0.167300000000    -0.623879   
O114     O      0.395620000000     0.487470000000     0.820010000000    -0.576655   
O115     O      0.489960000000     0.667240000000     0.904060000000    -0.564244   
O116     O      0.488160000000     0.662240000000     0.089960000000    -0.568186   
O117     O      0.487780000000     0.589400000000     0.820220000000    -0.557897   
O118     O      0.489580000000     0.579150000000     0.168490000000    -0.613833   
O119     O      0.664210000000     0.497460000000     0.895820000000    -0.568292   
O120     O      0.315230000000     0.481010000000     0.901610000000    -0.598003   
O121     O      0.320190000000     0.490760000000     0.088830000000    -0.615769   
O122     O      0.667340000000     0.485930000000     0.080480000000    -0.574047   
O123     O      0.582220000000     0.665720000000     0.992530000000    -0.564171   
O124     O      0.396900000000     0.664030000000     0.002430000000    -0.571557   
O125     O      0.428400000000     0.551930000000     0.058680000000    -1.46055    
O126     O      0.552750000000     0.556730000000     0.929000000000    -1.36813    
O127     O      0.422930000000     0.565690000000     0.921600000000    -1.06096    
O128     O      0.565880000000     0.563470000000     0.058010000000    -1.05924    
S1       S      0.484830000000     0.189810000000     0.101810000000     0.00204766 
S2       S      0.470420000000     0.604610000000     0.294780000000     0.00866665 
S3       S      0.471540000000     0.793670000000     0.880910000000     0.00370893 
S4       S      0.432650000000     0.202900000000     0.867100000000     0.0142362  
S5       S      0.690170000000     0.380150000000     0.458320000000     0.00384326 
S6       S      0.881470000000     0.793580000000     0.461800000000     0.00469658 
S7       S      0.195470000000     0.102150000000     0.432120000000     0.0101668  
S8       S      0.294390000000     0.603660000000     0.461600000000     0.00780007 
S9       S      0.791750000000     0.453470000000     0.103660000000     0.00132858 
S10      S      0.377350000000     0.451510000000     0.289290000000    -0.00794752 
S11      S      0.369520000000     0.431150000000     0.704190000000     0.00828218 
S12      S      0.690930000000     0.527620000000     0.602900000000     0.00380316 
S13      S      0.690440000000     0.879780000000     0.010270000000     0.00803318 
S14      S      0.610220000000     0.194370000000     0.969780000000     0.00935518 
S15      S      0.104470000000     0.693660000000     0.036520000000     0.00647905 
S16      S      0.288310000000     0.108380000000     0.032040000000    -0.00658151 
S17      S      0.691590000000     0.015630000000     0.880340000000     0.00656439 
S18      S      0.284130000000     0.042430000000     0.870030000000     0.0135268  
S19      S      0.229010000000     0.107030000000     0.338900000000    -0.00700336 
S20      S      0.879400000000     0.975280000000     0.293560000000     0.00833991 
S21      S      0.041820000000     0.108390000000     0.697320000000     0.00805192 
S22      S      0.950910000000     0.694530000000     0.876880000000     0.00192435 
S23      S      0.049360000000     0.875340000000     0.287740000000     0.0162643  
S24      S      0.006460000000     0.107950000000     0.290870000000     0.00288705 


