data_structure

_audit_creation_method RASPA-1.0
_audit_creation_date 2023-5-19
_audit_author_name 'Poobodin Mano'

_cell_length_a    20.6859
_cell_length_b    20.6889
_cell_length_c    20.6772
_cell_angle_alpha 90
_cell_angle_beta  90
_cell_angle_gamma 90
_cell_volume      8849.19

_symmetry_cell_setting          triclinic
_symmetry_space_group_name_Hall 'P 1'
_symmetry_space_group_name_H-M  'P 1'
_symmetry_Int_Tables_number     1

_symmetry_equiv_pos_as_xyz 'x,y,z'

loop_
_atom_site_label
_atom_site_type_symbol
_atom_site_fract_x
_atom_site_fract_y
_atom_site_fract_z
_atom_site_charge
C1       C      0.992400000000     0.153930000000     0.152810000000     0.529553   
C2       C      0.008490000000     0.844000000000     0.154150000000     0.51024    
C3       C      0.843770000000     0.003550000000     0.155510000000     0.534847   
C4       C      0.153000000000     0.997250000000     0.152990000000     0.53148    
C5       C      0.993690000000     0.843590000000     0.843110000000     0.498022   
C6       C      0.007200000000     0.154020000000     0.843410000000     0.510686   
C7       C      0.843780000000     0.842370000000     0.994810000000     0.523352   
C8       C      0.154070000000     0.844260000000     0.007870000000     0.510165   
C9       C      0.152350000000     0.153920000000     0.992280000000     0.503147   
C10      C      0.842980000000     0.154080000000     0.008670000000     0.536141   
C11      C      0.841800000000     0.997920000000     0.844140000000     0.524936   
C12      C      0.153360000000     0.004690000000     0.842970000000     0.510655   
C13      C      0.993340000000     0.343210000000     0.343530000000     0.504442   
C14      C      0.007180000000     0.652780000000     0.342000000000     0.536538   
C15      C      0.843430000000     0.487270000000     0.342190000000     0.511439   
C16      C      0.152930000000     0.505220000000     0.343530000000     0.504974   
C17      C      0.992540000000     0.653240000000     0.653740000000     0.524053   
C18      C      0.008640000000     0.343140000000     0.653590000000     0.536526   
C19      C      0.841160000000     0.652060000000     0.497760000000     0.525909   
C20      C      0.152100000000     0.655040000000     0.492380000000     0.537072   
C21      C      0.154550000000     0.345350000000     0.500460000000     0.531533   
C22      C      0.844030000000     0.341170000000     0.493060000000     0.508641   
C23      C      0.842450000000     0.501130000000     0.652940000000     0.500529   
C24      C      0.152980000000     0.489740000000     0.653510000000     0.512462   
C25      C      0.653060000000     0.994990000000     0.344000000000     0.504801   
C26      C      0.343560000000     0.006180000000     0.341480000000     0.508394   
C27      C      0.503340000000     0.844140000000     0.341920000000     0.511892   
C28      C      0.495330000000     0.153870000000     0.343630000000     0.503901   
C29      C      0.341800000000     0.997870000000     0.652310000000     0.525195   
C30      C      0.653130000000     0.004130000000     0.653520000000     0.50901    
C31      C      0.341890000000     0.844390000000     0.498370000000     0.500527   
C32      C      0.344000000000     0.155530000000     0.491690000000     0.508587   
C33      C      0.654290000000     0.151630000000     0.501880000000     0.530392   
C34      C      0.652590000000     0.842670000000     0.491330000000     0.509347   
C35      C      0.494210000000     0.842960000000     0.652910000000     0.499087   
C36      C      0.503480000000     0.153720000000     0.653570000000     0.512507   
C37      C      0.341630000000     0.344620000000     0.993430000000     0.530112   
C38      C      0.651860000000     0.341970000000     0.008340000000     0.511479   
C39      C      0.492130000000     0.341520000000     0.844370000000     0.538121   
C40      C      0.500620000000     0.344340000000     0.154340000000     0.529716   
C41      C      0.653580000000     0.652930000000     0.993520000000     0.498855   
C42      C      0.343190000000     0.654390000000     0.008200000000     0.535671   
C43      C      0.652100000000     0.500910000000     0.842150000000     0.525423   
C44      C      0.653680000000     0.487960000000     0.152940000000     0.537224   
C45      C      0.343740000000     0.505440000000     0.154130000000     0.530289   
C46      C      0.341970000000     0.488760000000     0.843620000000     0.536371   
C47      C      0.498910000000     0.652470000000     0.842080000000     0.524756   
C48      C      0.494330000000     0.653460000000     0.153960000000     0.539096   
C49      C      0.496530000000     0.185300000000     0.232580000000     0.024562   
C50      C      0.497560000000     0.265130000000     0.313710000000    -0.0685583  
C51      C      0.498470000000     0.233410000000     0.185190000000     0.0483336  
C52      C      0.499570000000     0.313410000000     0.266470000000     0.37484    
C53      C      0.502770000000     0.812600000000     0.231030000000     0.0327102  
C54      C      0.498720000000     0.733140000000     0.312530000000    -0.0648367  
C55      C      0.499300000000     0.764390000000     0.183930000000     0.0550819  
C56      C      0.495140000000     0.684850000000     0.265670000000     0.382465   
C57      C      0.495430000000     0.811510000000     0.763920000000     0.0310565  
C58      C      0.495330000000     0.731690000000     0.682770000000    -0.063005   
C59      C      0.497200000000     0.763390000000     0.811280000000     0.0547076  
C60      C      0.497130000000     0.683390000000     0.729970000000     0.381837   
C61      C      0.502130000000     0.264430000000     0.685310000000     0.0373654  
C62      C      0.497490000000     0.182910000000     0.764720000000    -0.0667324  
C63      C      0.497880000000     0.311440000000     0.733490000000     0.0570323  
C64      C      0.493150000000     0.229770000000     0.813050000000     0.37943    
C65      C      0.733060000000     0.310150000000     0.495740000000     0.0291694  
C66      C      0.813860000000     0.229990000000     0.494790000000    -0.0662391  
C67      C      0.685570000000     0.262320000000     0.498940000000     0.0531441  
C68      C      0.766490000000     0.181950000000     0.498120000000     0.37399    
C69      C      0.763380000000     0.811010000000     0.491150000000     0.0310773  
C70      C      0.682070000000     0.731350000000     0.492870000000    -0.0647363  
C71      C      0.810570000000     0.762860000000     0.493660000000     0.0539222  
C72      C      0.729150000000     0.683000000000     0.495340000000     0.380253   
C73      C      0.233070000000     0.186710000000     0.494060000000     0.0285238  
C74      C      0.313980000000     0.266760000000     0.493070000000    -0.0646705  
C75      C      0.185660000000     0.234630000000     0.497240000000     0.0540196  
C76      C      0.266690000000     0.314890000000     0.496360000000     0.376825   
C77      C      0.310750000000     0.733520000000     0.495360000000     0.0323013  
C78      C      0.230700000000     0.814460000000     0.495390000000    -0.0655873  
C79      C      0.262820000000     0.686110000000     0.492960000000     0.0597316  
C80      C      0.182570000000     0.767160000000     0.493010000000     0.381275   
C81      C      0.732380000000     0.483960000000     0.311530000000     0.0355061  
C82      C      0.813100000000     0.481730000000     0.231230000000    -0.0612532  
C83      C      0.684790000000     0.484050000000     0.263680000000     0.0595404  
C84      C      0.765650000000     0.481850000000     0.183210000000     0.382827   
C85      C      0.184460000000     0.506940000000     0.232400000000     0.0306408  
C86      C      0.264250000000     0.508560000000     0.313530000000    -0.0638769  
C87      C      0.232680000000     0.507050000000     0.184990000000     0.0560419  
C88      C      0.312630000000     0.508660000000     0.266260000000     0.380781   
C89      C      0.183370000000     0.486890000000     0.764760000000     0.0350759  
C90      C      0.263710000000     0.483310000000     0.684140000000    -0.0625766  
C91      C      0.231170000000     0.486450000000     0.812480000000     0.0629528  
C92      C      0.311620000000     0.482870000000     0.731650000000     0.383901   
C93      C      0.811130000000     0.502330000000     0.763960000000     0.0339564  
C94      C      0.731240000000     0.503160000000     0.682840000000    -0.0634217  
C95      C      0.763010000000     0.502260000000     0.811350000000     0.0604753  
C96      C      0.682960000000     0.503140000000     0.730070000000     0.382489   
C97      C      0.684850000000     0.763930000000     0.992260000000     0.0307113  
C98      C      0.764820000000     0.682960000000     0.991680000000    -0.0645292  
C99      C      0.732900000000     0.811390000000     0.992660000000     0.0541586  
C100     C      0.813050000000     0.730280000000     0.992020000000     0.380984   
C101     C      0.683450000000     0.231120000000     0.012530000000     0.0332178  
C102     C      0.762960000000     0.312570000000     0.013360000000    -0.0640339  
C103     C      0.731860000000     0.184020000000     0.012530000000     0.0564173  
C104     C      0.811460000000     0.265700000000     0.013640000000     0.385756   
C105     C      0.184710000000     0.733230000000     0.011190000000     0.0301472  
C106     C      0.265000000000     0.813890000000     0.013540000000    -0.0663786  
C107     C      0.232510000000     0.685620000000     0.011460000000     0.0573362  
C108     C      0.312990000000     0.766420000000     0.013700000000     0.375597   
C109     C      0.263370000000     0.185460000000     0.990710000000     0.0274614  
C110     C      0.182270000000     0.265260000000     0.990220000000    -0.0686877  
C111     C      0.310760000000     0.233640000000     0.991080000000     0.0507231  
C112     C      0.229520000000     0.313610000000     0.990530000000     0.377284   
C113     C      0.764020000000     0.004300000000     0.685040000000     0.0299824  
C114     C      0.682760000000     0.002280000000     0.764780000000    -0.0660298  
C115     C      0.811260000000     0.001860000000     0.733200000000     0.0553874  
C116     C      0.729840000000     0.999860000000     0.813110000000     0.375416   
C117     C      0.264180000000     0.004610000000     0.811390000000     0.0309814  
C118     C      0.182860000000     0.002660000000     0.731690000000    -0.0673538  
C119     C      0.311360000000     0.001940000000     0.763220000000     0.0540697  
C120     C      0.229890000000     0.000070000000     0.683350000000     0.378237   
C121     C      0.312170000000     0.005350000000     0.230460000000     0.0277929  
C122     C      0.232480000000     0.003710000000     0.311790000000    -0.0695321  
C123     C      0.263990000000     0.002020000000     0.183240000000     0.0510227  
C124     C      0.184200000000     0.000360000000     0.264810000000     0.376531   
C125     C      0.684680000000     0.997400000000     0.233130000000     0.024676   
C126     C      0.764300000000     0.999360000000     0.314520000000    -0.0709702  
C127     C      0.732860000000     0.000480000000     0.185950000000     0.0531611  
C128     C      0.812640000000     0.002680000000     0.267490000000     0.380468   
C129     C      0.011020000000     0.184590000000     0.732290000000     0.029695   
C130     C      0.013430000000     0.264840000000     0.813040000000    -0.0638396  
C131     C      0.011690000000     0.232410000000     0.684660000000     0.0568937  
C132     C      0.014000000000     0.312820000000     0.765580000000     0.380973   
C133     C      0.991370000000     0.812340000000     0.731990000000     0.0311801  
C134     C      0.990950000000     0.732450000000     0.813070000000    -0.0661784  
C135     C      0.990980000000     0.764230000000     0.684540000000     0.054738   
C136     C      0.990480000000     0.684200000000     0.765810000000     0.380219   
C137     C      0.011680000000     0.812250000000     0.265000000000     0.0354966  
C138     C      0.013350000000     0.732820000000     0.183440000000    -0.0648372  
C139     C      0.011150000000     0.763840000000     0.312070000000     0.0594882  
C140     C      0.013130000000     0.684290000000     0.230320000000     0.382883   
C141     C      0.991510000000     0.232100000000     0.312150000000     0.0314163  
C142     C      0.990360000000     0.313150000000     0.232270000000    -0.0663191  
C143     C      0.991170000000     0.184690000000     0.263940000000     0.0526077  
C144     C      0.990000000000     0.265930000000     0.183930000000     0.378239   
Eu1      Eu     0.997620000000     0.998030000000     0.113140000000     3.52695    
Eu2      Eu     0.998680000000     0.883750000000     0.998710000000     3.05593    
Eu3      Eu     0.996990000000     0.113110000000     0.997530000000     3.51225    
Eu4      Eu     0.882810000000     0.998410000000     0.999350000000     3.05852    
Eu5      Eu     0.112860000000     0.998310000000     0.997350000000     3.50183    
Eu6      Eu     0.997780000000     0.998770000000     0.883280000000     3.04848    
Eu7      Eu     0.997370000000     0.498820000000     0.383460000000     3.49476    
Eu8      Eu     0.997000000000     0.613400000000     0.497800000000     3.05817    
Eu9      Eu     0.998240000000     0.383430000000     0.499050000000     3.48696    
Eu10     Eu     0.882880000000     0.496990000000     0.497610000000     3.07139    
Eu11     Eu     0.112520000000     0.500170000000     0.499090000000     3.53118    
Eu12     Eu     0.997860000000     0.498180000000     0.613160000000     3.09321    
Eu13     Eu     0.497470000000     0.998200000000     0.383170000000     3.47999    
Eu14     Eu     0.382930000000     0.999630000000     0.497200000000     3.05697    
Eu15     Eu     0.612340000000     0.996970000000     0.499260000000     3.49728    
Eu16     Eu     0.497280000000     0.883610000000     0.497500000000     3.05602    
Eu17     Eu     0.498010000000     0.113340000000     0.499100000000     3.50807    
Eu18     Eu     0.497560000000     0.998420000000     0.613160000000     3.04633    
Eu19     Eu     0.497830000000     0.383490000000     0.998330000000     3.50825    
Eu20     Eu     0.612830000000     0.497500000000     0.997920000000     3.06615    
Eu21     Eu     0.382960000000     0.499770000000     0.998110000000     3.48488    
Eu22     Eu     0.497180000000     0.497360000000     0.883540000000     3.10753    
Eu23     Eu     0.499090000000     0.499410000000     0.112950000000     3.57167    
Eu24     Eu     0.498240000000     0.613400000000     0.998150000000     3.06135    
F1       F      0.501170000000     0.375740000000     0.287180000000    -0.423561   
F2       F      0.491150000000     0.622740000000     0.286740000000    -0.413445   
F3       F      0.498050000000     0.621040000000     0.709250000000    -0.405567   
F4       F      0.488410000000     0.208770000000     0.875160000000    -0.4485     
F5       F      0.786920000000     0.119520000000     0.499170000000    -0.446294   
F6       F      0.708380000000     0.620710000000     0.497470000000    -0.43473    
F7       F      0.287210000000     0.377290000000     0.497400000000    -0.436567   
F8       F      0.120160000000     0.787660000000     0.491450000000    -0.440833   
F9       F      0.785960000000     0.479660000000     0.120720000000    -0.430666   
F10      F      0.374980000000     0.509920000000     0.286970000000    -0.404533   
F11      F      0.374050000000     0.479830000000     0.711330000000    -0.418794   
F12      F      0.620590000000     0.503860000000     0.709390000000    -0.414133   
F13      F      0.875450000000     0.709690000000     0.991420000000    -0.433547   
F14      F      0.873690000000     0.286750000000     0.014900000000    -0.410984   
F15      F      0.375460000000     0.786680000000     0.015940000000    -0.449682   
F16      F      0.208820000000     0.375960000000     0.989950000000    -0.439602   
F17      F      0.709030000000     0.997570000000     0.875420000000    -0.447761   
F18      F      0.209040000000     0.997720000000     0.621050000000    -0.444039   
F19      F      0.121980000000     0.997840000000     0.285800000000    -0.44148    
F20      F      0.874890000000     0.005440000000     0.288360000000    -0.4377     
F21      F      0.016710000000     0.375250000000     0.785910000000    -0.431358   
F22      F      0.989470000000     0.621860000000     0.786520000000    -0.432955   
F23      F      0.014580000000     0.622050000000     0.209290000000    -0.436676   
F24      F      0.988830000000     0.286670000000     0.121570000000    -0.415445   
H1       H      0.939450000000     0.938670000000     0.105660000000    -0.185336   
H2       H      0.091660000000     0.093470000000     0.091740000000     0.421182   
H3       H      0.937660000000     0.105640000000     0.938760000000    -0.17303    
H4       H      0.104960000000     0.939180000000     0.938960000000    -0.183891   
H5       H      0.937940000000     0.557390000000     0.390570000000    -0.171507   
H6       H      0.092510000000     0.405380000000     0.403900000000     0.418976   
H7       H      0.939660000000     0.390890000000     0.558030000000    -0.179801   
H8       H      0.104200000000     0.558660000000     0.558220000000    -0.182581   
H9       H      0.438470000000     0.939970000000     0.390800000000    -0.18169    
H10      H      0.592500000000     0.092070000000     0.404670000000     0.420413   
H11      H      0.604010000000     0.938160000000     0.557850000000    -0.181233   
H12      H      0.439020000000     0.105480000000     0.557310000000    -0.185902   
H13      H      0.556760000000     0.390850000000     0.939920000000    -0.184923   
H14      H      0.403250000000     0.405460000000     0.092960000000     0.42199    
H15      H      0.390570000000     0.558450000000     0.938790000000    -0.171362   
H16      H      0.558560000000     0.557380000000     0.104720000000    -0.190743   
H17      H      0.498670000000     0.217880000000     0.135120000000     0.0365025  
H18      H      0.495490000000     0.135420000000     0.216530000000     0.038489   
H19      H      0.497420000000     0.280310000000     0.363890000000     0.0999473  
H20      H      0.499870000000     0.779620000000     0.133760000000     0.051797   
H21      H      0.505490000000     0.862370000000     0.214840000000     0.0428176  
H22      H      0.498060000000     0.718130000000     0.362770000000     0.10462    
H23      H      0.497800000000     0.778910000000     0.861350000000     0.0479523  
H24      H      0.494930000000     0.861390000000     0.779980000000     0.0460432  
H25      H      0.494790000000     0.716530000000     0.632580000000     0.105694   
H26      H      0.498460000000     0.361570000000     0.718210000000     0.0744569  
H27      H      0.505350000000     0.280690000000     0.635570000000     0.0537967  
H28      H      0.496810000000     0.132680000000     0.779660000000     0.0960576  
H29      H      0.635610000000     0.278090000000     0.500310000000     0.0427615  
H30      H      0.717170000000     0.360080000000     0.495070000000     0.0537321  
H31      H      0.863970000000     0.214660000000     0.493440000000     0.0956786  
H32      H      0.860640000000     0.778340000000     0.493740000000     0.0437402  
H33      H      0.779540000000     0.860830000000     0.489710000000     0.0497847  
H34      H      0.631870000000     0.716310000000     0.492840000000     0.105047   
H35      H      0.135690000000     0.218920000000     0.498670000000     0.0391814  
H36      H      0.217120000000     0.136800000000     0.493460000000     0.0580129  
H37      H      0.364100000000     0.282020000000     0.491710000000     0.102809   
H38      H      0.278510000000     0.636110000000     0.492220000000     0.0518912  
H39      H      0.360660000000     0.717550000000     0.496070000000     0.0558493  
H40      H      0.215440000000     0.864600000000     0.496020000000     0.112159   
H41      H      0.634810000000     0.485070000000     0.279430000000     0.0716966  
H42      H      0.716610000000     0.484840000000     0.361520000000     0.0631186  
H43      H      0.863190000000     0.480500000000     0.215840000000     0.113534   
H44      H      0.217180000000     0.506450000000     0.134910000000     0.0534822  
H45      H      0.134570000000     0.506290000000     0.216360000000     0.0664364  
H46      H      0.279410000000     0.509270000000     0.363720000000     0.113518   
H47      H      0.215430000000     0.487810000000     0.862470000000     0.0618733  
H48      H      0.133390000000     0.488470000000     0.780440000000     0.0795194  
H49      H      0.279180000000     0.481720000000     0.634060000000     0.11791    
H50      H      0.778540000000     0.501940000000     0.861420000000     0.0542184  
H51      H      0.861030000000     0.502050000000     0.779990000000     0.075782   
H52      H      0.716050000000     0.503620000000     0.632660000000     0.115796   
H53      H      0.717290000000     0.861410000000     0.993030000000     0.0501548  
H54      H      0.634930000000     0.779900000000     0.992370000000     0.0477526  
H55      H      0.780060000000     0.632820000000     0.991180000000     0.112523   
H56      H      0.716650000000     0.133870000000     0.012140000000     0.0489203  
H57      H      0.633610000000     0.214930000000     0.012020000000     0.0532752  
H58      H      0.777940000000     0.362790000000     0.013980000000     0.123628   
H59      H      0.216720000000     0.635660000000     0.010550000000     0.0473704  
H60      H      0.134730000000     0.717480000000     0.010230000000     0.0555974  
H61      H      0.280410000000     0.863970000000     0.014640000000     0.0925522  
H62      H      0.360820000000     0.218120000000     0.991390000000     0.0490023  
H63      H      0.279430000000     0.135580000000     0.990800000000     0.0415446  
H64      H      0.132090000000     0.280400000000     0.989760000000     0.113859   
H65      H      0.861340000000     0.001930000000     0.717750000000     0.0398238  
H66      H      0.780120000000     0.005860000000     0.635160000000     0.0582943  
H67      H      0.632570000000     0.002170000000     0.779890000000     0.0962574  
H68      H      0.361450000000     0.001940000000     0.778650000000     0.040015   
H69      H      0.280330000000     0.006210000000     0.861250000000     0.0441994  
H70      H      0.132650000000     0.002680000000     0.716630000000     0.0965551  
H71      H      0.279340000000     0.001640000000     0.133120000000     0.0349891  
H72      H      0.362020000000     0.007020000000     0.214360000000     0.0411003  
H73      H      0.217350000000     0.004050000000     0.361990000000     0.102445   
H74      H      0.717450000000     0.000660000000     0.135840000000     0.0390007  
H75      H      0.634870000000     0.995560000000     0.216940000000     0.0396777  
H76      H      0.779340000000     0.999310000000     0.364760000000     0.108232   
H77      H      0.010820000000     0.216690000000     0.634660000000     0.0400337  
H78      H      0.009860000000     0.134620000000     0.716530000000     0.0468774  
H79      H      0.014510000000     0.280250000000     0.863140000000     0.115062   
H80      H      0.991080000000     0.779740000000     0.634460000000     0.0505524  
H81      H      0.991700000000     0.862250000000     0.716010000000     0.0473386  
H82      H      0.990700000000     0.717220000000     0.863240000000     0.115269   
H83      H      0.010290000000     0.779050000000     0.362240000000     0.0598699  
H84      H      0.011030000000     0.862070000000     0.281260000000     0.0731769  
H85      H      0.014450000000     0.717920000000     0.133170000000     0.1105     
H86      H      0.991540000000     0.134630000000     0.279430000000     0.0650551  
H87      H      0.992090000000     0.216100000000     0.362080000000     0.0480164  
H88      H      0.989830000000     0.363300000000     0.217060000000     0.106297   
N1       N      0.496130000000     0.201110000000     0.296890000000    -0.178739   
N2       N      0.499860000000     0.297610000000     0.201810000000    -0.24541    
N3       N      0.502290000000     0.796950000000     0.295340000000    -0.17582    
N4       N      0.495680000000     0.700410000000     0.201000000000    -0.241448   
N5       N      0.494640000000     0.795710000000     0.699610000000    -0.17261    
N6       N      0.498000000000     0.699180000000     0.794620000000    -0.237997   
N7       N      0.501800000000     0.200140000000     0.700910000000    -0.175852   
N8       N      0.493690000000     0.294400000000     0.797490000000    -0.240973   
N9       N      0.797260000000     0.294040000000     0.493940000000    -0.174827   
N10      N      0.701950000000     0.198080000000     0.500130000000    -0.24648    
N11      N      0.699090000000     0.795300000000     0.491200000000    -0.1745     
N12      N      0.793770000000     0.698740000000     0.495880000000    -0.240976   
N13      N      0.297280000000     0.202720000000     0.492290000000    -0.173816   
N14      N      0.202140000000     0.298850000000     0.498450000000    -0.246911   
N15      N      0.294720000000     0.797720000000     0.496730000000    -0.170725   
N16      N      0.198600000000     0.702600000000     0.492290000000    -0.243532   
N17      N      0.796580000000     0.483950000000     0.295300000000    -0.173041   
N18      N      0.701160000000     0.484270000000     0.199400000000    -0.241118   
N19      N      0.200200000000     0.507090000000     0.296750000000    -0.174479   
N20      N      0.296930000000     0.507260000000     0.201590000000    -0.242857   
N21      N      0.199690000000     0.486390000000     0.700550000000    -0.170623   
N22      N      0.295420000000     0.485640000000     0.796170000000    -0.241308   
N23      N      0.795260000000     0.502330000000     0.699670000000    -0.168656   
N24      N      0.698790000000     0.502210000000     0.794710000000    -0.2396     
N25      N      0.700770000000     0.699670000000     0.992300000000    -0.171142   
N26      N      0.797130000000     0.794880000000     0.993070000000    -0.239636   
N27      N      0.699040000000     0.295420000000     0.011750000000    -0.172279   
N28      N      0.795980000000     0.201060000000     0.011980000000    -0.241676   
N29      N      0.200950000000     0.797400000000     0.011180000000    -0.174826   
N30      N      0.296780000000     0.701930000000     0.011480000000    -0.243267   
N31      N      0.199060000000     0.201210000000     0.990870000000    -0.176582   
N32      N      0.294170000000     0.297870000000     0.991560000000    -0.244914   
N33      N      0.699730000000     0.004130000000     0.700800000000    -0.173824   
N34      N      0.794470000000     0.999570000000     0.797370000000    -0.242135   
N35      N      0.199900000000     0.004550000000     0.795660000000    -0.175621   
N36      N      0.294510000000     0.999600000000     0.699080000000    -0.242495   
N37      N      0.296410000000     0.005770000000     0.294770000000    -0.175199   
N38      N      0.199890000000     0.999460000000     0.200150000000    -0.248513   
N39      N      0.700380000000     0.996750000000     0.297460000000    -0.17705    
N40      N      0.796970000000     0.002800000000     0.202820000000    -0.243903   
N41      N      0.010800000000     0.200830000000     0.796500000000    -0.173515   
N42      N      0.011880000000     0.296650000000     0.701050000000    -0.243904   
N43      N      0.991900000000     0.796470000000     0.796300000000    -0.170996   
N44      N      0.991130000000     0.700020000000     0.701140000000    -0.239747   
N45      N      0.011580000000     0.796730000000     0.200650000000    -0.171172   
N46      N      0.010780000000     0.699740000000     0.294990000000    -0.242306   
N47      N      0.991630000000     0.296390000000     0.296350000000    -0.177906   
N48      N      0.990980000000     0.201300000000     0.199680000000    -0.242027   
O1       O      0.993730000000     0.172360000000     0.090290000000    -0.57341    
O2       O      0.004620000000     0.825220000000     0.091790000000    -0.553067   
O3       O      0.906310000000     0.004590000000     0.173840000000    -0.568836   
O4       O      0.090600000000     0.996910000000     0.171710000000    -0.588146   
O5       O      0.172050000000     0.997340000000     0.090510000000    -0.628387   
O6       O      0.824540000000     0.000990000000     0.093140000000    -0.568296   
O7       O      0.007740000000     0.906380000000     0.173380000000    -0.58333    
O8       O      0.993500000000     0.091510000000     0.172040000000    -0.603867   
O9       O      0.062460000000     0.936050000000     0.062180000000    -1.47426    
O10      O      0.934910000000     0.062380000000     0.062560000000    -1.47768    
O11      O      0.925210000000     0.924930000000     0.065060000000    -1.05934    
O12      O      0.064290000000     0.065260000000     0.064420000000    -1.65073    
O13      O      0.995680000000     0.824740000000     0.905620000000    -0.544814   
O14      O      0.006080000000     0.173060000000     0.905840000000    -0.592114   
O15      O      0.824330000000     0.904750000000     0.995910000000    -0.55326    
O16      O      0.172970000000     0.906730000000     0.007340000000    -0.605109   
O17      O      0.171660000000     0.091590000000     0.993170000000    -0.621976   
O18      O      0.824020000000     0.091690000000     0.005660000000    -0.560215   
O19      O      0.904200000000     0.998210000000     0.824790000000    -0.563745   
O20      O      0.090870000000     0.002020000000     0.824380000000    -0.563897   
O21      O      0.823420000000     0.997780000000     0.906720000000    -0.525347   
O22      O      0.172740000000     0.005320000000     0.905320000000    -0.607481   
O23      O      0.906330000000     0.824130000000     0.996330000000    -0.521684   
O24      O      0.905380000000     0.172850000000     0.006990000000    -0.557385   
O25      O      0.089820000000     0.172580000000     0.993860000000    -0.605143   
O26      O      0.091850000000     0.825150000000     0.003840000000    -0.559996   
O27      O      0.994370000000     0.905970000000     0.823960000000    -0.559873   
O28      O      0.003640000000     0.091750000000     0.824410000000    -0.565781   
O29      O      0.061600000000     0.062490000000     0.934990000000    -1.47251    
O30      O      0.934780000000     0.935440000000     0.935570000000    -1.37262    
O31      O      0.924200000000     0.064570000000     0.925450000000    -1.06454    
O32      O      0.064290000000     0.925410000000     0.924920000000    -1.0559     
O33      O      0.994580000000     0.324120000000     0.405970000000    -0.619227   
O34      O      0.003270000000     0.671850000000     0.404330000000    -0.557889   
O35      O      0.905870000000     0.488890000000     0.323240000000    -0.593455   
O36      O      0.090580000000     0.502910000000     0.324300000000    -0.604095   
O37      O      0.171680000000     0.504720000000     0.406080000000    -0.609415   
O38      O      0.824330000000     0.490430000000     0.404490000000    -0.55791    
O39      O      0.006310000000     0.590320000000     0.323360000000    -0.567077   
O40      O      0.994510000000     0.405660000000     0.324610000000    -0.6144     
O41      O      0.061330000000     0.561820000000     0.434380000000    -1.47678    
O42      O      0.935560000000     0.433580000000     0.434270000000    -1.47165    
O43      O      0.924090000000     0.570820000000     0.431480000000    -1.06743    
O44      O      0.064830000000     0.432560000000     0.431960000000    -1.64599    
O45      O      0.993160000000     0.672410000000     0.591240000000    -0.552458   
O46      O      0.008440000000     0.323780000000     0.591170000000    -0.608134   
O47      O      0.823020000000     0.589430000000     0.497830000000    -0.521487   
O48      O      0.171720000000     0.592750000000     0.492150000000    -0.606984   
O49      O      0.172560000000     0.407980000000     0.500440000000    -0.587682   
O50      O      0.824730000000     0.403440000000     0.495010000000    -0.563072   
O51      O      0.904810000000     0.499990000000     0.672200000000    -0.54063    
O52      O      0.090680000000     0.493560000000     0.672370000000    -0.545539   
O53      O      0.823670000000     0.500120000000     0.590420000000    -0.547812   
O54      O      0.172130000000     0.490410000000     0.591070000000    -0.593526   
O55      O      0.903460000000     0.671590000000     0.497800000000    -0.563091   
O56      O      0.906640000000     0.322570000000     0.492540000000    -0.601981   
O57      O      0.092280000000     0.325630000000     0.500570000000    -0.625566   
O58      O      0.089510000000     0.673010000000     0.494780000000    -0.53012    
O59      O      0.994560000000     0.590800000000     0.672240000000    -0.523065   
O60      O      0.003960000000     0.405450000000     0.671930000000    -0.529433   
O61      O      0.062260000000     0.435080000000     0.561310000000    -1.47807    
O62      O      0.933960000000     0.560910000000     0.561120000000    -1.37928    
O63      O      0.925090000000     0.431460000000     0.571510000000    -1.06452    
O64      O      0.063270000000     0.572290000000     0.571650000000    -1.06438    
O65      O      0.671680000000     0.994780000000     0.406540000000    -0.611022   
O66      O      0.324670000000     0.003930000000     0.403880000000    -0.562485   
O67      O      0.504570000000     0.906510000000     0.322750000000    -0.605592   
O68      O      0.495420000000     0.091520000000     0.324340000000    -0.621282   
O69      O      0.495890000000     0.172610000000     0.406170000000    -0.620879   
O70      O      0.500670000000     0.825340000000     0.404310000000    -0.565545   
O71      O      0.405990000000     0.006340000000     0.322450000000    -0.604746   
O72      O      0.590780000000     0.995470000000     0.324540000000    -0.623106   
O73      O      0.435460000000     0.063420000000     0.433860000000    -1.46568    
O74      O      0.561650000000     0.935110000000     0.433970000000    -1.46403    
O75      O      0.424340000000     0.926030000000     0.431340000000    -1.05966    
O76      O      0.564690000000     0.064490000000     0.432190000000    -1.64603    
O77      O      0.323460000000     0.998280000000     0.589740000000    -0.523444   
O78      O      0.672420000000     0.004370000000     0.591150000000    -0.593546   
O79      O      0.404180000000     0.824990000000     0.498420000000    -0.557431   
O80      O      0.406580000000     0.174140000000     0.491480000000    -0.601368   
O81      O      0.592000000000     0.171320000000     0.501740000000    -0.62637    
O82      O      0.590060000000     0.824230000000     0.493650000000    -0.56216    
O83      O      0.494930000000     0.905320000000     0.672190000000    -0.558186   
O84      O      0.500850000000     0.091260000000     0.672090000000    -0.566062   
O85      O      0.494710000000     0.824260000000     0.590330000000    -0.554605   
O86      O      0.505030000000     0.173140000000     0.591230000000    -0.60519    
O87      O      0.323280000000     0.906960000000     0.498220000000    -0.544976   
O88      O      0.672050000000     0.904950000000     0.491290000000    -0.601853   
O89      O      0.672300000000     0.089050000000     0.501750000000    -0.587063   
O90      O      0.324710000000     0.093240000000     0.493660000000    -0.555094   
O91      O      0.404160000000     0.997570000000     0.671690000000    -0.563814   
O92      O      0.590640000000     0.001850000000     0.672140000000    -0.563691   
O93      O      0.562030000000     0.062040000000     0.561810000000    -1.46585    
O94      O      0.433910000000     0.935610000000     0.560900000000    -1.36865    
O95      O      0.563160000000     0.924580000000     0.571470000000    -1.06148    
O96      O      0.424800000000     0.064950000000     0.571100000000    -1.05655    
O97      O      0.323350000000     0.407180000000     0.995000000000    -0.58303    
O98      O      0.670860000000     0.404200000000     0.003820000000    -0.550519   
O99      O      0.491000000000     0.323050000000     0.906900000000    -0.573229   
O100     O      0.499790000000     0.324940000000     0.091960000000    -0.625651   
O101     O      0.500720000000     0.406900000000     0.172600000000    -0.580552   
O102     O      0.494470000000     0.403850000000     0.825230000000    -0.550144   
O103     O      0.589390000000     0.322950000000     0.008120000000    -0.594013   
O104     O      0.404000000000     0.325210000000     0.994470000000    -0.615212   
O105     O      0.560710000000     0.434390000000     0.062220000000    -1.48566    
O106     O      0.433230000000     0.434390000000     0.935990000000    -1.4774     
O107     O      0.570620000000     0.431200000000     0.925180000000    -1.06504    
O108     O      0.431190000000     0.432690000000     0.065220000000    -1.65436    
O109     O      0.672280000000     0.590370000000     0.994990000000    -0.545713   
O110     O      0.323590000000     0.592100000000     0.007170000000    -0.604052   
O111     O      0.589540000000     0.500200000000     0.823890000000    -0.513661   
O112     O      0.591330000000     0.489050000000     0.172430000000    -0.588483   
O113     O      0.406330000000     0.504230000000     0.172420000000    -0.568682   
O114     O      0.404340000000     0.491430000000     0.825160000000    -0.524156   
O115     O      0.498980000000     0.671890000000     0.904480000000    -0.554812   
O116     O      0.496470000000     0.672320000000     0.091480000000    -0.559754   
O117     O      0.498220000000     0.589870000000     0.823850000000    -0.505433   
O118     O      0.493210000000     0.591090000000     0.172720000000    -0.564094   
O119     O      0.671510000000     0.499440000000     0.904510000000    -0.558782   
O120     O      0.322710000000     0.490660000000     0.906070000000    -0.592899   
O121     O      0.324350000000     0.503780000000     0.091740000000    -0.612717   
O122     O      0.671930000000     0.491940000000     0.090520000000    -0.528592   
O123     O      0.591260000000     0.672240000000     0.994450000000    -0.557679   
O124     O      0.405650000000     0.672510000000     0.004500000000    -0.532363   
O125     O      0.434600000000     0.562000000000     0.062320000000    -1.4797     
O126     O      0.560930000000     0.560960000000     0.934620000000    -1.38289    
O127     O      0.431600000000     0.571600000000     0.925040000000    -1.07079    
O128     O      0.571980000000     0.571370000000     0.063920000000    -1.06015    


