data_structure

_audit_creation_method RASPA-1.0
_audit_creation_date 2023-5-19
_audit_author_name 'Poobodin Mano'

_cell_length_a    19.4868
_cell_length_b    19.0788
_cell_length_c    18.7307
_cell_angle_alpha 90
_cell_angle_beta  90
_cell_angle_gamma 90
_cell_volume      6963.79

_symmetry_cell_setting          triclinic
_symmetry_space_group_name_Hall 'P 1'
_symmetry_space_group_name_H-M  'P 1'
_symmetry_Int_Tables_number     1

_symmetry_equiv_pos_as_xyz 'x,y,z'

loop_
_atom_site_label
_atom_site_type_symbol
_atom_site_fract_x
_atom_site_fract_y
_atom_site_fract_z
_atom_site_charge
C1       C      0.957060000000     0.219650000000     0.204260000000     0.535598   
C2       C      0.041220000000     0.903550000000     0.246430000000     0.522561   
C3       C      0.845550000000     0.041670000000     0.209280000000     0.517879   
C4       C      0.158320000000     0.091610000000     0.248320000000     0.532165   
C5       C      0.074010000000     0.875080000000     0.900060000000     0.501087   
C6       C      0.029260000000     0.207320000000     0.876410000000     0.525446   
C7       C      0.885630000000     0.858680000000     0.049850000000     0.501652   
C8       C      0.210080000000     0.905420000000     0.087800000000     0.510785   
C9       C      0.162270000000     0.243620000000     0.056610000000     0.497735   
C10      C      0.838390000000     0.187000000000     0.046410000000     0.527554   
C11      C      0.895720000000     0.010100000000     0.861430000000     0.505413   
C12      C      0.216770000000     0.073870000000     0.917440000000     0.511404   
C13      C      0.007050000000     0.369300000000     0.382470000000     0.533103   
C14      C      0.022590000000     0.696840000000     0.364910000000     0.51752    
C15      C      0.851060000000     0.498310000000     0.408880000000     0.548107   
C16      C      0.163780000000     0.543660000000     0.345310000000     0.516729   
C17      C      0.043310000000     0.707700000000     0.713980000000     0.5043     
C18      C      0.082810000000     0.374570000000     0.711560000000     0.529792   
C19      C      0.870200000000     0.709240000000     0.559860000000     0.49485    
C20      C      0.196440000000     0.708360000000     0.510610000000     0.515649   
C21      C      0.199420000000     0.373340000000     0.526100000000     0.520498   
C22      C      0.870960000000     0.370880000000     0.571090000000     0.512516   
C23      C      0.896960000000     0.540530000000     0.739740000000     0.514487   
C24      C      0.221270000000     0.532960000000     0.688190000000     0.522452   
C25      C      0.642430000000     0.042700000000     0.335750000000     0.50973    
C26      C      0.330870000000     0.051000000000     0.423010000000     0.535664   
C27      C      0.503440000000     0.885650000000     0.364820000000     0.522713   
C28      C      0.475000000000     0.213950000000     0.395040000000     0.530469   
C29      C      0.402420000000     0.026950000000     0.749450000000     0.509006   
C30      C      0.725800000000     0.043800000000     0.673920000000     0.518341   
C31      C      0.369900000000     0.867470000000     0.576600000000     0.505738   
C32      C      0.367070000000     0.205940000000     0.585470000000     0.521543   
C33      C      0.689260000000     0.209740000000     0.520150000000     0.508257   
C34      C      0.692030000000     0.873270000000     0.499380000000     0.503355   
C35      C      0.564190000000     0.867930000000     0.709280000000     0.508088   
C36      C      0.568090000000     0.200080000000     0.720250000000     0.525535   
C37      C      0.370360000000     0.368310000000     0.037030000000     0.497666   
C38      C      0.369180000000     0.708940000000     0.082540000000     0.506243   
C39      C      0.360250000000     0.506640000000     0.220510000000     0.518787   
C40      C      0.385170000000     0.568150000000     0.877830000000     0.516541   
C41      C      0.697350000000     0.702780000000     0.101100000000     0.506503   
C42      C      0.697750000000     0.376500000000     0.027590000000     0.526121   
C43      C      0.520820000000     0.678860000000     0.254830000000     0.514599   
C44      C      0.523700000000     0.721840000000     0.907270000000     0.522383   
C45      C      0.569370000000     0.395240000000     0.874790000000     0.525081   
C46      C      0.522410000000     0.350460000000     0.206840000000     0.524297   
C47      C      0.680420000000     0.526680000000     0.243390000000     0.537036   
C48      C      0.712730000000     0.566660000000     0.910530000000     0.523347   
C49      C      0.460290000000     0.261220000000     0.273030000000     0.0993221  
C50      C      0.460600000000     0.773860000000     0.316510000000     0.109901   
C51      C      0.522430000000     0.769940000000     0.783030000000     0.0998493  
C52      C      0.570520000000     0.322720000000     0.765890000000     0.101784   
C53      C      0.807570000000     0.261380000000     0.535050000000     0.0941586  
C54      C      0.753700000000     0.760830000000     0.530340000000     0.0902629  
C55      C      0.253060000000     0.259400000000     0.560970000000     0.098418   
C56      C      0.312390000000     0.758090000000     0.534880000000     0.0978324  
C57      C      0.786450000000     0.486940000000     0.298520000000     0.112801   
C58      C      0.239140000000     0.484480000000     0.258890000000     0.104969   
C59      C      0.279060000000     0.546900000000     0.806490000000     0.0995806  
C60      C      0.783340000000     0.553890000000     0.800130000000     0.101343   
C61      C      0.768940000000     0.805110000000     0.065800000000     0.0947247  
C62      C      0.740000000000     0.255260000000     0.005630000000     0.0973044  
C63      C      0.264470000000     0.786230000000     0.076940000000     0.0950399  
C64      C      0.255360000000     0.317190000000     0.003410000000     0.0892552  
C65      C      0.790250000000     0.023800000000     0.787110000000     0.09577    
C66      C      0.290750000000     0.040200000000     0.813680000000     0.0953082  
C67      C      0.265860000000     0.088440000000     0.317080000000     0.110938   
C68      C      0.732560000000     0.997030000000     0.252400000000     0.106614   
C69      C      0.077410000000     0.256210000000     0.764840000000     0.102154   
C70      C      0.069880000000     0.819240000000     0.778880000000     0.0941253  
C71      C      0.083260000000     0.794970000000     0.306170000000     0.105131   
C72      C      0.962940000000     0.330860000000     0.265840000000     0.106365   
Eu1      Eu     0.007720000000     0.056900000000     0.179810000000     3.63899    
Eu2      Eu     0.044560000000     0.926130000000     0.067950000000     2.94885    
Eu3      Eu     0.006900000000     0.171660000000     0.045250000000     3.53002    
Eu4      Eu     0.905690000000     0.028920000000     0.039140000000     3.05691    
Eu5      Eu     0.146440000000     0.069510000000     0.074140000000     3.479      
Eu6      Eu     0.046710000000     0.042580000000     0.931530000000     3.00392    
Eu7      Eu     0.013060000000     0.537090000000     0.421920000000     3.59628    
Eu8      Eu     0.034040000000     0.664910000000     0.541400000000     2.94453    
Eu9      Eu     0.035110000000     0.414130000000     0.549290000000     3.59301    
Eu10     Eu     0.913530000000     0.538950000000     0.566140000000     3.07304    
Eu11     Eu     0.155420000000     0.540730000000     0.524560000000     3.54302    
Eu12     Eu     0.054220000000     0.541240000000     0.669800000000     3.08801    
Eu13     Eu     0.499400000000     0.045560000000     0.425120000000     3.55919    
Eu14     Eu     0.409900000000     0.036720000000     0.575950000000     3.06572    
Eu15     Eu     0.647990000000     0.040810000000     0.516420000000     3.39455    
Eu16     Eu     0.529780000000     0.913140000000     0.539970000000     3.00233    
Eu17     Eu     0.527560000000     0.163720000000     0.554520000000     3.56516    
Eu18     Eu     0.556730000000     0.033860000000     0.669580000000     3.06622    
Eu19     Eu     0.409080000000     0.539010000000     0.051920000000     3.32118    
Eu20     Eu     0.531090000000     0.663460000000     0.076870000000     3.05415    
Eu21     Eu     0.534840000000     0.415400000000     0.045990000000     3.46379    
Eu22     Eu     0.524110000000     0.522290000000     0.185010000000     3.16925    
Eu23     Eu     0.543710000000     0.555340000000     0.936480000000     3.54178    
Eu24     Eu     0.654290000000     0.539580000000     0.071390000000     3.1453     
H1       H      0.958900000000     0.982130000000     0.169230000000    -0.207189   
H2       H      0.091880000000     0.175770000000     0.163340000000     0.416358   
H3       H      0.954730000000     0.149350000000     0.973110000000    -0.170507   
H4       H      0.155010000000     0.002400000000     0.015170000000    -0.220284   
H5       H      0.950200000000     0.601050000000     0.437140000000    -0.168625   
H6       H      0.117450000000     0.436270000000     0.427850000000     0.415656   
H7       H      0.984150000000     0.423450000000     0.624680000000    -0.188373   
H8       H      0.155980000000     0.605300000000     0.589180000000    -0.199149   
H9       H      0.441980000000     0.978810000000     0.443620000000    -0.190139   
H10      H      0.601120000000     0.148870000000     0.426220000000     0.409956   
H11      H      0.653300000000     0.975560000000     0.578880000000    -0.190711   
H12      H      0.481070000000     0.149830000000     0.630640000000    -0.204814   
H13      H      0.414560000000     0.591700000000     0.125310000000    -0.17748    
H14      H      0.443460000000     0.449070000000     0.936260000000     0.390448   
H15      H      0.594300000000     0.416150000000     0.113580000000    -0.186758   
H16      H      0.601370000000     0.619780000000     0.958810000000    -0.200221   
H17      H      0.562150000000     0.297200000000     0.290840000000     0.099304   
H18      H      0.446840000000     0.316080000000     0.372290000000     0.109853   
H19      H      0.415190000000     0.287590000000     0.248250000000     0.0133601  
H20      H      0.461090000000     0.205930000000     0.254490000000     0.0279332  
H21      H      0.494410000000     0.863030000000     0.257390000000     0.115397   
H22      H      0.523170000000     0.695090000000     0.363460000000     0.113641   
H23      H      0.432240000000     0.770850000000     0.368040000000     0.0151114  
H24      H      0.422900000000     0.767200000000     0.272310000000     0.0139975  
H25      H      0.503530000000     0.825520000000     0.881950000000     0.109135   
H26      H      0.612140000000     0.831500000000     0.798930000000     0.113141   
H27      H      0.537390000000     0.716270000000     0.766240000000     0.031759   
H28      H      0.472660000000     0.782720000000     0.756950000000     0.0184021  
H29      H      0.581050000000     0.226280000000     0.826000000000     0.111247   
H30      H      0.646040000000     0.328420000000     0.847110000000     0.112116   
H31      H      0.597170000000     0.338940000000     0.716090000000     0.0250813  
H32      H      0.515790000000     0.338840000000     0.761530000000     0.00681146 
H33      H      0.778350000000     0.339040000000     0.611550000000     0.111036   
H34      H      0.714640000000     0.312950000000     0.503460000000     0.104448   
H35      H      0.841180000000     0.262880000000     0.487120000000     0.0216736  
H36      H      0.818720000000     0.212770000000     0.565630000000     0.0259608  
H37      H      0.842270000000     0.812160000000     0.573480000000     0.108981   
H38      H      0.786350000000     0.843500000000     0.460500000000     0.109327   
H39      H      0.747950000000     0.714760000000     0.494530000000     0.0242423  
H40      H      0.715220000000     0.756740000000     0.573930000000     0.0266843  
H41      H      0.295800000000     0.341050000000     0.495850000000     0.107203   
H42      H      0.338200000000     0.304890000000     0.615900000000     0.11021    
H43      H      0.211640000000     0.257520000000     0.601750000000     0.0270861  
H44      H      0.246790000000     0.214250000000     0.523980000000     0.0208507  
H45      H      0.275980000000     0.832570000000     0.611930000000     0.110531   
H46      H      0.224860000000     0.810210000000     0.490160000000     0.109917   
H47      H      0.351130000000     0.759930000000     0.491330000000     0.0240099  
H48      H      0.320090000000     0.709090000000     0.565990000000     0.0223076  
H49      H      0.761570000000     0.442050000000     0.399930000000     0.108598   
H50      H      0.701830000000     0.540260000000     0.349020000000     0.114754   
H51      H      0.827440000000     0.519910000000     0.274410000000     0.0275752  
H52      H      0.780770000000     0.438650000000     0.265700000000     0.0160819  
H53      H      0.328000000000     0.492360000000     0.324780000000     0.113625   
H54      H      0.177260000000     0.573330000000     0.241420000000     0.108487   
H55      H      0.229050000000     0.475200000000     0.201190000000     0.0152728  
H56      H      0.223170000000     0.436970000000     0.289190000000    -0.00658441 
H57      H      0.323690000000     0.512990000000     0.706420000000     0.105348   
H58      H      0.367470000000     0.606920000000     0.777530000000     0.111758   
H59      H      0.236450000000     0.583250000000     0.820040000000     0.0261054  
H60      H      0.273500000000     0.498970000000     0.839790000000     0.0111299  
H61      H      0.881030000000     0.525120000000     0.847120000000     0.109482   
H62      H      0.808120000000     0.608750000000     0.896100000000     0.111939   
H63      H      0.770090000000     0.592210000000     0.757610000000     0.0271546  
H64      H      0.752980000000     0.505370000000     0.790860000000     0.0235167  
H65      H      0.867100000000     0.752210000000     0.055250000000     0.107131   
H66      H      0.787640000000     0.730760000000     0.148540000000     0.110825   
H67      H      0.754060000000     0.856480000000     0.089100000000     0.0279031  
H68      H      0.741870000000     0.799480000000     0.013830000000     0.0200559  
H69      H      0.788100000000     0.258720000000     0.106940000000     0.112992   
H70      H      0.797220000000     0.351360000000     0.999140000000     0.113925   
H71      H      0.756200000000     0.235100000000     0.952460000000     0.0140475  
H72      H      0.686080000000     0.238940000000     0.015240000000     0.0285175  
H73      H      0.344750000000     0.786250000000     0.153160000000     0.110399   
H74      H      0.314440000000     0.887480000000     0.087730000000     0.10755    
H75      H      0.264120000000     0.773290000000     0.019060000000     0.0180264  
H76      H      0.217300000000     0.763870000000     0.101270000000     0.0271755  
H77      H      0.176460000000     0.348850000000     0.074000000000     0.100231   
H78      H      0.343140000000     0.263680000000     0.044060000000     0.111411   
H79      H      0.252710000000     0.277090000000     0.960320000000     0.0163753  
H80      H      0.246570000000     0.369580000000     0.978950000000     0.0149763  
H81      H      0.887590000000     0.980170000000     0.756750000000     0.111314   
H82      H      0.830230000000     0.056260000000     0.683900000000     0.108717   
H83      H      0.752620000000     0.981750000000     0.799590000000     0.0301536  
H84      H      0.778210000000     0.069430000000     0.821880000000     0.0248159  
H85      H      0.316830000000     0.104770000000     0.903530000000     0.110781   
H86      H      0.391000000000     0.016290000000     0.858610000000     0.106285   
H87      H      0.261800000000     0.989980000000     0.813130000000     0.0263388  
H88      H      0.273610000000     0.071410000000     0.766870000000     0.0301479  
H89      H      0.168150000000     0.128970000000     0.350550000000     0.104231   
H90      H      0.226080000000     0.045360000000     0.415800000000     0.111268   
H91      H      0.283290000000     0.050080000000     0.276170000000     0.0232857  
H92      H      0.299560000000     0.135370000000     0.313600000000     0.0190846  
H93      H      0.805010000000     0.058100000000     0.309660000000     0.116296   
H94      H      0.642530000000     0.054250000000     0.226280000000     0.110243   
H95      H      0.727090000000     0.975520000000     0.197480000000     0.0199311  
H96      H      0.736870000000     0.952610000000     0.290610000000     0.0190459  
H97      H      0.001600000000     0.302040000000     0.833370000000     0.11133    
H98      H      0.129890000000     0.346230000000     0.805850000000     0.108182   
H99      H      0.120230000000     0.219000000000     0.775200000000     0.0204369  
H100     H      0.050850000000     0.240390000000     0.714880000000     0.0254317  
H101     H      0.007930000000     0.733550000000     0.812970000000     0.110222   
H102     H      0.106870000000     0.775020000000     0.877340000000     0.109153   
H103     H      0.116720000000     0.820190000000     0.744990000000     0.0198544  
H104     H      0.036880000000     0.864500000000     0.764160000000     0.0293547  
H105     H      0.038990000000     0.885290000000     0.355340000000     0.114353   
H106     H      0.013560000000     0.722780000000     0.258340000000     0.112696   
H107     H      0.115200000000     0.788010000000     0.257440000000     0.0191791  
H108     H      0.117300000000     0.791510000000     0.353770000000     0.0200581  
H109     H      0.008120000000     0.266680000000     0.349010000000     0.10315    
H110     H      0.893490000000     0.247990000000     0.286400000000     0.112161   
H111     H      0.925120000000     0.374260000000     0.271020000000     0.0273545  
H112     H      0.001520000000     0.345700000000     0.224710000000     0.0110179  
N1       N      0.454840000000     0.266150000000     0.350790000000    -0.253765   
N2       N      0.524190000000     0.295150000000     0.251360000000    -0.247996   
N3       N      0.511690000000     0.718200000000     0.314240000000    -0.243196   
N4       N      0.493600000000     0.841810000000     0.308880000000    -0.246661   
N5       N      0.575670000000     0.818820000000     0.759960000000    -0.245193   
N6       N      0.514320000000     0.775880000000     0.861100000000    -0.247762   
N7       N      0.603940000000     0.356010000000     0.826740000000    -0.248747   
N8       N      0.574840000000     0.246460000000     0.774430000000    -0.251409   
N9       N      0.735150000000     0.263040000000     0.512570000000    -0.248777   
N10      N      0.820220000000     0.322780000000     0.580700000000    -0.244841   
N11      N      0.743420000000     0.825810000000     0.488800000000    -0.242358   
N12      N      0.823190000000     0.762250000000     0.561460000000    -0.240957   
N13      N      0.319830000000     0.256840000000     0.596850000000    -0.24791    
N14      N      0.250030000000     0.324920000000     0.520060000000    -0.252463   
N15      N      0.243390000000     0.760400000000     0.503450000000    -0.247387   
N16      N      0.319720000000     0.818540000000     0.582820000000    -0.245105   
N17      N      0.722570000000     0.525810000000     0.299540000000    -0.256705   
N18      N      0.800780000000     0.467330000000     0.371700000000    -0.257568   
N19      N      0.199820000000     0.545290000000     0.283300000000    -0.247458   
N20      N      0.311840000000     0.496070000000     0.271640000000    -0.246481   
N21      N      0.344400000000     0.581570000000     0.820930000000    -0.251775   
N22      N      0.277360000000     0.527440000000     0.730530000000    -0.250088   
N23      N      0.767320000000     0.584170000000     0.869670000000    -0.248756   
N24      N      0.856990000000     0.537250000000     0.798700000000    -0.247497   
N25      N      0.748430000000     0.749160000000     0.115250000000    -0.243522   
N26      N      0.843880000000     0.801620000000     0.053770000000    -0.243379   
N27      N      0.747730000000     0.331550000000     0.006910000000    -0.252093   
N28      N      0.783070000000     0.226450000000     0.062040000000    -0.248462   
N29      N      0.266310000000     0.863220000000     0.086390000000    -0.244909   
N30      N      0.324570000000     0.755660000000     0.111750000000    -0.243442   
N31      N      0.324110000000     0.314220000000     0.035340000000    -0.241845   
N32      N      0.201160000000     0.303330000000     0.056420000000    -0.240602   
N33      N      0.785030000000     0.044740000000     0.711690000000    -0.247776   
N34      N      0.859630000000     0.997920000000     0.800910000000    -0.243305   
N35      N      0.365040000000     0.025250000000     0.810590000000    -0.245028   
N36      N      0.275490000000     0.079440000000     0.878850000000    -0.246334   
N37      N      0.271140000000     0.057090000000     0.387790000000    -0.255636   
N38      N      0.194950000000     0.109630000000     0.306290000000    -0.260358   
N39      N      0.672350000000     0.039120000000     0.270100000000    -0.247699   
N40      N      0.794140000000     0.039610000000     0.258290000000    -0.246815   
N41      N      0.104860000000     0.327370000000     0.760320000000    -0.250882   
N42      N      0.028270000000     0.255370000000     0.823570000000    -0.251841   
N43      N      0.089670000000     0.821980000000     0.854670000000    -0.242857   
N44      N      0.031750000000     0.754130000000     0.767430000000    -0.243995   
N45      N      0.031080000000     0.740110000000     0.308090000000    -0.245409   
N46      N      0.050290000000     0.863360000000     0.305520000000    -0.247476   
N47      N      0.926770000000     0.267020000000     0.247060000000    -0.253877   
N48      N      0.997660000000     0.318400000000     0.333810000000    -0.258631   
O1       O      0.976770000000     0.240480000000     0.138940000000    -0.629329   
O2       O      0.051200000000     0.875520000000     0.180650000000    -0.55006    
O3       O      0.907220000000     0.056810000000     0.236050000000    -0.633793   
O4       O      0.090500000000     0.085990000000     0.257990000000    -0.677721   
O5       O      0.191350000000     0.083600000000     0.185660000000    -0.650063   
O6       O      0.832950000000     0.027500000000     0.139190000000    -0.536676   
O7       O      0.023360000000     0.970140000000     0.258770000000    -0.648321   
O8       O      0.963390000000     0.154570000000     0.230180000000    -0.625815   
O9       O      0.093620000000     0.997540000000     0.142080000000    -1.46182    
O10      O      0.940920000000     0.109310000000     0.108770000000    -1.52257    
O11      O      0.951640000000     0.962270000000     0.124350000000    -1.04598    
O12      O      0.074140000000     0.137640000000     0.132570000000    -1.6685     
O13      O      0.069630000000     0.858700000000     0.970090000000    -0.549825   
O14      O      0.010190000000     0.230310000000     0.941120000000    -0.6493     
O15      O      0.856060000000     0.921600000000     0.040300000000    -0.587812   
O16      O      0.220760000000     0.975820000000     0.090260000000    -0.584368   
O17      O      0.193810000000     0.180720000000     0.063410000000    -0.588944   
O18      O      0.828050000000     0.118300000000     0.034630000000    -0.581051   
O19      O      0.963740000000     0.016240000000     0.852480000000    -0.579207   
O20      O      0.157430000000     0.053990000000     0.885270000000    -0.545348   
O21      O      0.862260000000     0.015560000000     0.924700000000    -0.554657   
O22      O      0.223370000000     0.087350000000     0.987240000000    -0.627898   
O23      O      0.953950000000     0.848190000000     0.058760000000    -0.552857   
O24      O      0.899970000000     0.218250000000     0.052240000000    -0.60597    
O25      O      0.093690000000     0.252340000000     0.052410000000    -0.634762   
O26      O      0.148280000000     0.874800000000     0.082090000000    -0.570037   
O27      O      0.065830000000     0.939820000000     0.872830000000    -0.55641    
O28      O      0.047370000000     0.140810000000     0.860710000000    -0.575001   
O29      O      0.092980000000     0.125540000000     0.992230000000    -1.46511    
O30      O      0.981330000000     0.967190000000     0.984160000000    -1.34261    
O31      O      0.951440000000     0.102210000000     0.959500000000    -1.05292    
O32      O      0.118410000000     0.978490000000     0.994610000000    -1.01487    
O33      O      0.020780000000     0.348760000000     0.449560000000    -0.663074   
O34      O      0.033830000000     0.721580000000     0.431750000000    -0.544033   
O35      O      0.909520000000     0.513280000000     0.374360000000    -0.633497   
O36      O      0.095500000000     0.545660000000     0.338320000000    -0.650186   
O37      O      0.197810000000     0.539830000000     0.408370000000    -0.615411   
O38      O      0.840270000000     0.506820000000     0.478920000000    -0.594004   
O39      O      0.007110000000     0.630300000000     0.349270000000    -0.640449   
O40      O      0.001890000000     0.435980000000     0.360170000000    -0.646652   
O41      O      0.090060000000     0.606020000000     0.462790000000    -1.48501    
O42      O      0.958940000000     0.468280000000     0.490830000000    -1.51681    
O43      O      0.944790000000     0.617050000000     0.484150000000    -1.06985    
O44      O      0.092960000000     0.466110000000     0.462800000000    -1.66003    
O45      O      0.043630000000     0.730290000000     0.645380000000    -0.539929   
O46      O      0.062340000000     0.350730000000     0.647480000000    -0.636653   
O47      O      0.848880000000     0.641530000000     0.561680000000    -0.54859    
O48      O      0.218430000000     0.641210000000     0.510940000000    -0.620709   
O49      O      0.217820000000     0.440480000000     0.514920000000    -0.646325   
O50      O      0.853540000000     0.438040000000     0.583760000000    -0.563146   
O51      O      0.965370000000     0.534630000000     0.749540000000    -0.565514   
O52      O      0.160180000000     0.543520000000     0.719730000000    -0.582986   
O53      O      0.865960000000     0.546980000000     0.676070000000    -0.58751    
O54      O      0.231260000000     0.527370000000     0.617020000000    -0.611313   
O55      O      0.936430000000     0.729310000000     0.555540000000    -0.565255   
O56      O      0.934840000000     0.349110000000     0.553260000000    -0.595822   
O57      O      0.135290000000     0.351370000000     0.541480000000    -0.625262   
O58      O      0.130670000000     0.728600000000     0.518870000000    -0.567949   
O59      O      0.046830000000     0.640410000000     0.734450000000    -0.588718   
O60      O      0.083830000000     0.442440000000     0.731120000000    -0.578509   
O61      O      0.112710000000     0.472450000000     0.602600000000    -1.50052    
O62      O      0.979090000000     0.609130000000     0.623070000000    -1.37111    
O63      O      0.971230000000     0.468250000000     0.640100000000    -1.06549    
O64      O      0.115740000000     0.620900000000     0.611190000000    -1.03705    
O65      O      0.680810000000     0.036450000000     0.396110000000    -0.592983   
O66      O      0.326310000000     0.039560000000     0.493330000000    -0.599341   
O67      O      0.500090000000     0.954140000000     0.349660000000    -0.631121   
O68      O      0.477490000000     0.148460000000     0.368760000000    -0.635478   
O69      O      0.491130000000     0.231880000000     0.462370000000    -0.641065   
O70      O      0.512560000000     0.858430000000     0.431050000000    -0.557636   
O71      O      0.389690000000     0.056860000000     0.385850000000    -0.622849   
O72      O      0.574470000000     0.051860000000     0.334830000000    -0.654133   
O73      O      0.447300000000     0.110970000000     0.499120000000    -1.4973     
O74      O      0.578990000000     0.975270000000     0.458630000000    -1.45741    
O75      O      0.437570000000     0.961650000000     0.490150000000    -1.05416    
O76      O      0.580640000000     0.116940000000     0.462060000000    -1.6471     
O77      O      0.368020000000     0.033040000000     0.687820000000    -0.587234   
O78      O      0.731120000000     0.048310000000     0.602140000000    -0.599655   
O79      O      0.432540000000     0.847130000000     0.553920000000    -0.561188   
O80      O      0.432430000000     0.227440000000     0.578540000000    -0.618889   
O81      O      0.623640000000     0.228830000000     0.532320000000    -0.644169   
O82      O      0.629350000000     0.850250000000     0.519770000000    -0.56083    
O83      O      0.576580000000     0.934060000000     0.729190000000    -0.589208   
O84      O      0.571000000000     0.131710000000     0.737700000000    -0.58434    
O85      O      0.542970000000     0.847670000000     0.643490000000    -0.545892   
O86      O      0.556140000000     0.224940000000     0.654170000000    -0.627279   
O87      O      0.352030000000     0.933980000000     0.592040000000    -0.563417   
O88      O      0.708620000000     0.941410000000     0.489640000000    -0.59964    
O89      O      0.711130000000     0.142880000000     0.513070000000    -0.612599   
O90      O      0.346300000000     0.138420000000     0.583760000000    -0.553643   
O91      O      0.471670000000     0.024190000000     0.755080000000    -0.55586    
O92      O      0.666610000000     0.037190000000     0.710270000000    -0.573505   
O93      O      0.610000000000     0.106250000000     0.600900000000    -1.46516    
O94      O      0.479600000000     0.965500000000     0.627020000000    -1.36341    
O95      O      0.615460000000     0.957920000000     0.603470000000    -1.03205    
O96      O      0.470270000000     0.105400000000     0.647830000000    -1.05797    
O97      O      0.437080000000     0.349730000000     0.038760000000    -0.625962   
O98      O      0.435250000000     0.727150000000     0.089260000000    -0.595434   
O99      O      0.341510000000     0.514510000000     0.151040000000    -0.576138   
O100     O      0.356490000000     0.554770000000     0.942310000000    -0.614133   
O101     O      0.452680000000     0.571010000000     0.864450000000    -0.64889    
O102     O      0.424880000000     0.509010000000     0.244470000000    -0.605489   
O103     O      0.346700000000     0.644030000000     0.062790000000    -0.567168   
O104     O      0.347520000000     0.435510000000     0.038110000000    -0.596603   
O105     O      0.469100000000     0.614680000000     0.995380000000    -1.44539    
O106     O      0.460150000000     0.461300000000     0.115040000000    -1.4611     
O107     O      0.456150000000     0.606090000000     0.145120000000    -1.05498    
O108     O      0.468540000000     0.476030000000     0.973160000000    -1.59742    
O109     O      0.632710000000     0.726500000000     0.089130000000    -0.551301   
O110     O      0.632680000000     0.352840000000     0.030040000000    -0.599869   
O111     O      0.523520000000     0.609570000000     0.265440000000    -0.577824   
O112     O      0.533840000000     0.658090000000     0.879190000000    -0.629627   
O113     O      0.561080000000     0.463700000000     0.859740000000    -0.634896   
O114     O      0.526330000000     0.414390000000     0.236560000000    -0.59506    
O115     O      0.707810000000     0.523960000000     0.177600000000    -0.588424   
O116     O      0.725360000000     0.563590000000     0.980620000000    -0.601274   
O117     O      0.613620000000     0.528580000000     0.258660000000    -0.599114   
O118     O      0.649860000000     0.559820000000     0.880380000000    -0.588173   
O119     O      0.522080000000     0.710760000000     0.190180000000    -0.545199   
O120     O      0.521270000000     0.337370000000     0.136420000000    -0.614476   
O121     O      0.558680000000     0.365670000000     0.938910000000    -0.628811   
O122     O      0.521400000000     0.735880000000     0.978150000000    -0.565399   
O123     O      0.715690000000     0.635080000000     0.101880000000    -0.581507   
O124     O      0.717150000000     0.442740000000     0.042100000000    -0.581531   
O125     O      0.605220000000     0.480220000000     0.989120000000    -1.50531    
O126     O      0.593360000000     0.599200000000     0.143720000000    -1.40516    
O127     O      0.606510000000     0.457030000000     0.137740000000    -1.07881    
O128     O      0.614440000000     0.628260000000     0.005930000000    -1.06309    


