data_structure

_audit_creation_method RASPA-1.0
_audit_creation_date 2023-5-19
_audit_author_name 'Poobodin Mano'

_cell_length_a    21.1154
_cell_length_b    21.142
_cell_length_c    20.9678
_cell_angle_alpha 90
_cell_angle_beta  90
_cell_angle_gamma 90
_cell_volume      9360.48

_symmetry_cell_setting          triclinic
_symmetry_space_group_name_Hall 'P 1'
_symmetry_space_group_name_H-M  'P 1'
_symmetry_Int_Tables_number     1

_symmetry_equiv_pos_as_xyz 'x,y,z'

loop_
_atom_site_label
_atom_site_type_symbol
_atom_site_fract_x
_atom_site_fract_y
_atom_site_fract_z
_atom_site_charge
C1       C      0.984350000000     0.159730000000     0.208150000000     0.512624   
C2       C      0.069240000000     0.876040000000     0.183210000000     0.509723   
C3       C      0.865950000000     0.994860000000     0.172060000000     0.517563   
C4       C      0.163220000000     0.035690000000     0.210610000000     0.521033   
C5       C      0.070260000000     0.904480000000     0.871940000000     0.496922   
C6       C      0.035240000000     0.204280000000     0.911370000000     0.516344   
C7       C      0.910470000000     0.859170000000     0.005300000000     0.488387   
C8       C      0.208280000000     0.909570000000     0.053930000000     0.52114    
C9       C      0.155720000000     0.206390000000     0.070820000000     0.511755   
C10      C      0.857840000000     0.155550000000     0.047480000000     0.517126   
C11      C      0.904520000000     0.026570000000     0.869960000000     0.507262   
C12      C      0.199550000000     0.081340000000     0.911370000000     0.51179    
C13      C      0.984430000000     0.401230000000     0.370480000000     0.514824   
C14      C      0.026260000000     0.693610000000     0.390060000000     0.512615   
C15      C      0.858570000000     0.554710000000     0.410880000000     0.524738   
C16      C      0.155970000000     0.539410000000     0.359080000000     0.522108   
C17      C      0.071840000000     0.664970000000     0.699510000000     0.496637   
C18      C      0.046890000000     0.363310000000     0.665670000000     0.516381   
C19      C      0.904590000000     0.701110000000     0.572760000000     0.499791   
C20      C      0.201380000000     0.665090000000     0.512330000000     0.51617    
C21      C      0.163420000000     0.365520000000     0.499380000000     0.506453   
C22      C      0.863610000000     0.402260000000     0.539320000000     0.523659   
C23      C      0.910660000000     0.536720000000     0.710050000000     0.513941   
C24      C      0.205700000000     0.491370000000     0.657220000000     0.511234   
C25      C      0.701540000000     0.988480000000     0.414980000000     0.510535   
C26      C      0.408610000000     0.044070000000     0.364250000000     0.522559   
C27      C      0.536090000000     0.862820000000     0.409010000000     0.519502   
C28      C      0.569650000000     0.162010000000     0.369780000000     0.508222   
C29      C      0.362280000000     0.072530000000     0.666410000000     0.499062   
C30      C      0.660380000000     0.041520000000     0.712260000000     0.520618   
C31      C      0.359320000000     0.908200000000     0.534280000000     0.508217   
C32      C      0.408150000000     0.204250000000     0.493420000000     0.510546   
C33      C      0.704060000000     0.159540000000     0.549280000000     0.520809   
C34      C      0.659320000000     0.862650000000     0.571040000000     0.510047   
C35      C      0.487100000000     0.905890000000     0.706900000000     0.50542    
C36      C      0.548860000000     0.203660000000     0.669760000000     0.523138   
C37      C      0.400420000000     0.366890000000     0.068430000000     0.511534   
C38      C      0.700240000000     0.399520000000     0.044160000000     0.520295   
C39      C      0.521640000000     0.357730000000     0.909290000000     0.52118    
C40      C      0.569990000000     0.406000000000     0.204940000000     0.507241   
C41      C      0.665190000000     0.696880000000     0.994100000000     0.503277   
C42      C      0.364920000000     0.664800000000     0.045530000000     0.521804   
C43      C      0.663980000000     0.528230000000     0.864290000000     0.511513   
C44      C      0.700180000000     0.559770000000     0.165450000000     0.523331   
C45      C      0.400830000000     0.546090000000     0.202010000000     0.523266   
C46      C      0.365670000000     0.487730000000     0.903460000000     0.512176   
C47      C      0.499420000000     0.659590000000     0.863070000000     0.503882   
C48      C      0.524620000000     0.703250000000     0.163880000000     0.520795   
C49      C      0.581170000000     0.299240000000     0.254080000000    -0.00343995 
C50      C      0.580170000000     0.269250000000     0.321220000000    -0.00355837 
C51      C      0.526680000000     0.750270000000     0.271550000000     0.000553436
C52      C      0.539940000000     0.814890000000     0.301610000000    -0.000475014
C53      C      0.475170000000     0.798200000000     0.752250000000    -0.00243908 
C54      C      0.484660000000     0.766590000000     0.817470000000    -0.0024823  
C55      C      0.554360000000     0.250950000000     0.778150000000    -0.00117418 
C56      C      0.513410000000     0.304800000000     0.803770000000    -0.000478113
C57      C      0.816670000000     0.295590000000     0.538230000000     0.000124144
C58      C      0.751360000000     0.265700000000     0.546250000000     0.000214823
C59      C      0.796850000000     0.748050000000     0.584510000000    -0.00393933 
C60      C      0.766210000000     0.814150000000     0.580110000000    -0.00152704 
C61      C      0.271020000000     0.318760000000     0.485520000000    -0.00298114 
C62      C      0.301450000000     0.252550000000     0.481450000000    -0.00384003 
C63      C      0.310930000000     0.801880000000     0.530210000000    -0.000978164
C64      C      0.247020000000     0.772890000000     0.512010000000    -0.00193052 
C65      C      0.745530000000     0.566710000000     0.273600000000     5.93065e-05
C66      C      0.810640000000     0.560160000000     0.304430000000     0.00119209 
C67      C      0.292760000000     0.548590000000     0.246090000000    -0.000502255
C68      C      0.261870000000     0.542470000000     0.311440000000     0.000357845
C69      C      0.319710000000     0.473220000000     0.795070000000    -0.00301905 
C70      C      0.253630000000     0.475790000000     0.764110000000    -0.0026182  
C71      C      0.804410000000     0.540730000000     0.756710000000     0.000662018
C72      C      0.772160000000     0.532770000000     0.821160000000    -0.00168135 
C73      C      0.804360000000     0.809890000000     0.989750000000     0.00105037 
C74      C      0.773860000000     0.743470000000     0.986690000000     0.00188141 
C75      C      0.809650000000     0.260660000000     0.057180000000     9.20929e-05
C76      C      0.744630000000     0.292150000000     0.054350000000     0.000193341
C77      C      0.255970000000     0.803780000000     0.055110000000    -0.000400521
C78      C      0.321300000000     0.773050000000     0.051890000000    -0.000760357
C79      C      0.261770000000     0.255320000000     0.079830000000    -0.00206233 
C80      C      0.292350000000     0.321260000000     0.078290000000    -0.00240498 
C81      C      0.797430000000     0.023990000000     0.823150000000    -0.00950472 
C82      C      0.767310000000     0.038940000000     0.758710000000     0.00358867 
C83      C      0.246880000000     0.092200000000     0.803110000000    -0.00277785 
C84      C      0.313490000000     0.087580000000     0.773390000000    -0.00363172 
C85      C      0.270810000000     0.041830000000     0.253940000000    -0.00633467 
C86      C      0.302600000000     0.053110000000     0.317960000000     0.00113317 
C87      C      0.817820000000     0.982190000000     0.279570000000     0.00379847 
C88      C      0.751220000000     0.975540000000     0.308510000000     0.00299236 
C89      C      0.054570000000     0.316930000000     0.773800000000    -0.00183649 
C90      C      0.048440000000     0.251330000000     0.804440000000    -0.000960938
C91      C      0.079770000000     0.771730000000     0.750810000000    -0.00404977 
C92      C      0.080710000000     0.798650000000     0.819490000000    -0.00372286 
C93      C      0.065880000000     0.781190000000     0.251630000000    -0.00515835 
C94      C      0.057820000000     0.787100000000     0.325170000000    -0.0044876  
C95      C      0.966060000000     0.265370000000     0.256450000000     0.00296388 
C96      C      0.968130000000     0.294460000000     0.323650000000     0.00358621 
Eu1      Eu     0.019760000000     0.018580000000     0.152350000000     3.49261    
Eu2      Eu     0.053300000000     0.921570000000     0.030010000000     2.99216    
Eu3      Eu     0.013140000000     0.143200000000     0.053020000000     3.45231    
Eu4      Eu     0.923140000000     0.014420000000     0.026730000000     2.96897    
Eu5      Eu     0.143420000000     0.050890000000     0.054880000000     3.54857    
Eu6      Eu     0.046780000000     0.047820000000     0.929760000000     3.0236     
Eu7      Eu     0.013860000000     0.544560000000     0.423740000000     3.55644    
Eu8      Eu     0.048260000000     0.645100000000     0.542500000000     2.94919    
Eu9      Eu     0.018180000000     0.421320000000     0.524080000000     3.45308    
Eu10     Eu     0.923130000000     0.545820000000     0.553490000000     3.10114    
Eu11     Eu     0.143650000000     0.520510000000     0.515160000000     3.48581    
Eu12     Eu     0.051800000000     0.519900000000     0.644800000000     3.04289    
Eu13     Eu     0.547290000000     0.017600000000     0.428080000000     3.45514    
Eu14     Eu     0.422340000000     0.050320000000     0.521860000000     3.0133     
Eu15     Eu     0.641870000000     0.017210000000     0.557670000000     3.46872    
Eu16     Eu     0.514810000000     0.923310000000     0.552560000000     3.0682     
Eu17     Eu     0.549330000000     0.144290000000     0.525890000000     3.55299    
Eu18     Eu     0.517040000000     0.049990000000     0.651020000000     3.0279     
Eu19     Eu     0.546080000000     0.421680000000     0.049170000000     3.48678    
Eu20     Eu     0.643510000000     0.543420000000     0.019690000000     3.01948    
Eu21     Eu     0.421330000000     0.520830000000     0.047350000000     3.50092    
Eu22     Eu     0.519250000000     0.514970000000     0.922110000000     3.04275    
Eu23     Eu     0.545840000000     0.549500000000     0.145040000000     3.54722    
Eu24     Eu     0.518850000000     0.643020000000     0.018710000000     3.03194    
H1       H      0.975990000000     0.951320000000     0.132690000000    -0.171837   
H2       H      0.096760000000     0.127150000000     0.154270000000     0.411016   
H3       H      0.964560000000     0.133620000000     0.987090000000    -0.170748   
H4       H      0.152330000000     0.999630000000     0.991400000000    -0.191795   
H5       H      0.966370000000     0.606270000000     0.446360000000    -0.19956    
H6       H      0.096910000000     0.441320000000     0.418370000000     0.409862   
H7       H      0.972410000000     0.429630000000     0.591710000000    -0.177919   
H8       H      0.152830000000     0.572510000000     0.578320000000    -0.182543   
H9       H      0.480530000000     0.970610000000     0.433670000000    -0.174705   
H10      H      0.649250000000     0.098580000000     0.451370000000     0.409545   
H11      H      0.617780000000     0.969670000000     0.620480000000    -0.170023   
H12      H      0.485010000000     0.152750000000     0.575690000000    -0.200542   
H13      H      0.595310000000     0.426160000000     0.983300000000    -0.179545   
H14      H      0.462180000000     0.446210000000     0.149620000000     0.412686   
H15      H      0.415400000000     0.570360000000     0.981980000000    -0.180295   
H16      H      0.595120000000     0.610830000000     0.122340000000    -0.186814   
H17      H      0.584340000000     0.390830000000     0.301430000000     0.0991421  
H18      H      0.582540000000     0.177970000000     0.273300000000     0.0989002  
H19      H      0.539960000000     0.281830000000     0.226060000000     0.0343178  
H20      H      0.624700000000     0.284250000000     0.228350000000     0.0366216  
H21      H      0.538200000000     0.286620000000     0.348070000000     0.0392151  
H22      H      0.622970000000     0.284070000000     0.348250000000     0.0322104  
H23      H      0.514910000000     0.799110000000     0.180930000000     0.102192   
H24      H      0.529740000000     0.766790000000     0.392770000000     0.102342   
H25      H      0.481180000000     0.731250000000     0.290200000000     0.0371428  
H26      H      0.564760000000     0.716540000000     0.285330000000     0.0395799  
H27      H      0.504970000000     0.850240000000     0.284080000000     0.0379141  
H28      H      0.587840000000     0.831640000000     0.287450000000     0.0389739  
H29      H      0.470200000000     0.888290000000     0.802560000000     0.103254   
H30      H      0.485980000000     0.676460000000     0.766700000000     0.101856   
H31      H      0.428960000000     0.783280000000     0.731790000000     0.0372153  
H32      H      0.512980000000     0.782130000000     0.719020000000     0.0428068  
H33      H      0.444410000000     0.778650000000     0.849460000000     0.0397432  
H34      H      0.528470000000     0.785260000000     0.840150000000     0.041917   
H35      H      0.571010000000     0.297160000000     0.688040000000     0.103732   
H36      H      0.515420000000     0.261090000000     0.896890000000     0.104471   
H37      H      0.535380000000     0.204920000000     0.795240000000     0.0429597  
H38      H      0.603110000000     0.256710000000     0.797340000000     0.0352661  
H39      H      0.463630000000     0.296990000000     0.788460000000     0.036196   
H40      H      0.529870000000     0.350650000000     0.783710000000     0.0421737  
H41      H      0.767790000000     0.385710000000     0.548310000000     0.102748   
H42      H      0.799790000000     0.176040000000     0.561890000000     0.100864   
H43      H      0.837620000000     0.281130000000     0.491790000000     0.0371696  
H44      H      0.849000000000     0.278880000000     0.576610000000     0.0371133  
H45      H      0.721080000000     0.278450000000     0.504750000000     0.0353151  
H46      H      0.728140000000     0.284780000000     0.589820000000     0.0384452  
H47      H      0.887660000000     0.796700000000     0.584770000000     0.102765   
H48      H      0.674750000000     0.766390000000     0.581220000000     0.102007   
H49      H      0.779440000000     0.717830000000     0.544760000000     0.0419691  
H50      H      0.782620000000     0.724860000000     0.629880000000     0.0378296  
H51      H      0.783550000000     0.838760000000     0.536580000000     0.0429165  
H52      H      0.780900000000     0.843220000000     0.621770000000     0.0381413  
H53      H      0.180370000000     0.269830000000     0.488540000000     0.0982027  
H54      H      0.393110000000     0.299510000000     0.475490000000     0.100265   
H55      H      0.283700000000     0.346860000000     0.442560000000     0.0302534  
H56      H      0.289910000000     0.344450000000     0.527720000000     0.0415137  
H57      H      0.285800000000     0.228680000000     0.436910000000     0.0334213  
H58      H      0.284710000000     0.223180000000     0.522150000000     0.0417583  
H59      H      0.263290000000     0.892970000000     0.523730000000     0.102624   
H60      H      0.295650000000     0.684110000000     0.493680000000     0.10221    
H61      H      0.348020000000     0.786330000000     0.495910000000     0.0392648  
H62      H      0.325290000000     0.785110000000     0.578350000000     0.0390387  
H63      H      0.231260000000     0.792720000000     0.465530000000     0.0352168  
H64      H      0.211110000000     0.785980000000     0.548540000000     0.0412877  
H65      H      0.795960000000     0.568640000000     0.182980000000     0.103176   
H66      H      0.762020000000     0.564140000000     0.396220000000     0.10276    
H67      H      0.723310000000     0.612070000000     0.288440000000     0.0357513  
H68      H      0.714190000000     0.527590000000     0.289900000000     0.0420898  
H69      H      0.841570000000     0.599930000000     0.289000000000     0.0389856  
H70      H      0.833380000000     0.515510000000     0.288130000000     0.0425962  
H71      H      0.381550000000     0.562230000000     0.297100000000     0.100569   
H72      H      0.171210000000     0.551490000000     0.262320000000     0.0997481  
H73      H      0.275620000000     0.592220000000     0.222000000000     0.0377595  
H74      H      0.279250000000     0.507490000000     0.215850000000     0.0333059  
H75      H      0.277780000000     0.581850000000     0.342840000000     0.039311   
H76      H      0.277040000000     0.497420000000     0.334250000000     0.031354   
H77      H      0.271030000000     0.468850000000     0.886540000000     0.102918   
H78      H      0.300910000000     0.471930000000     0.671660000000     0.10193    
H79      H      0.348800000000     0.513560000000     0.777660000000     0.0418706  
H80      H      0.344210000000     0.428920000000     0.780680000000     0.0375745  
H81      H      0.227540000000     0.517760000000     0.782400000000     0.0421842  
H82      H      0.226010000000     0.433200000000     0.778060000000     0.0379765  
H83      H      0.894460000000     0.531770000000     0.807400000000     0.103873   
H84      H      0.684050000000     0.520120000000     0.768180000000     0.102116   
H85      H      0.790970000000     0.587100000000     0.735580000000     0.039392   
H86      H      0.787770000000     0.503180000000     0.723480000000     0.0399849  
H87      H      0.783980000000     0.573680000000     0.852370000000     0.0422008  
H88      H      0.790010000000     0.489280000000     0.845000000000     0.0392545  
H89      H      0.896170000000     0.762850000000     0.993150000000     0.103033   
H90      H      0.683240000000     0.791780000000     0.978530000000     0.103249   
H91      H      0.784610000000     0.836360000000     0.031060000000     0.0373952  
H92      H      0.791880000000     0.837010000000     0.946080000000     0.0390727  
H93      H      0.788890000000     0.715180000000     0.028790000000     0.0370695  
H94      H      0.790740000000     0.718190000000     0.943420000000     0.0373469  
H95      H      0.760810000000     0.170290000000     0.045370000000     0.100221   
H96      H      0.796110000000     0.380780000000     0.042160000000     0.10195    
H97      H      0.833160000000     0.272530000000     0.103130000000     0.039532   
H98      H      0.840180000000     0.279460000000     0.018250000000     0.0375322  
H99      H      0.717220000000     0.280750000000     0.098180000000     0.0390342  
H100     H      0.717430000000     0.273630000000     0.012910000000     0.0352957  
H101     H      0.303860000000     0.893980000000     0.069880000000     0.103022   
H102     H      0.270980000000     0.684000000000     0.063490000000     0.102626   
H103     H      0.229940000000     0.785960000000     0.097610000000     0.0387379  
H104     H      0.228170000000     0.790080000000     0.012170000000     0.039413   
H105     H      0.350530000000     0.788380000000     0.093230000000     0.0377002  
H106     H      0.346180000000     0.788100000000     0.007650000000     0.0386154  
H107     H      0.170140000000     0.302890000000     0.080780000000     0.0977202  
H108     H      0.382680000000     0.271830000000     0.082300000000     0.0991578  
H109     H      0.276350000000     0.230100000000     0.124000000000     0.0292685  
H110     H      0.279200000000     0.226990000000     0.038680000000     0.0415279  
H111     H      0.277580000000     0.348790000000     0.120950000000     0.028782   
H112     H      0.275850000000     0.347570000000     0.035440000000     0.0404777  
H113     H      0.887480000000     0.031870000000     0.773290000000     0.102559   
H114     H      0.677980000000     0.052970000000     0.808640000000     0.102514   
H115     H      0.782660000000     0.976120000000     0.839300000000     0.0450167  
H116     H      0.781120000000     0.058650000000     0.859580000000     0.0416965  
H117     H      0.780340000000     0.001380000000     0.723910000000     0.0383889  
H118     H      0.786290000000     0.084530000000     0.740370000000     0.0374066  
H119     H      0.293620000000     0.103270000000     0.894880000000     0.102889   
H120     H      0.266410000000     0.086690000000     0.681030000000     0.101061   
H121     H      0.217760000000     0.051230000000     0.787320000000     0.0409014  
H122     H      0.223030000000     0.135890000000     0.785980000000     0.0364946  
H123     H      0.338590000000     0.045590000000     0.792950000000     0.0404591  
H124     H      0.341760000000     0.130000000000     0.786530000000     0.0378092  
H125     H      0.182780000000     0.029130000000     0.306910000000     0.0994102  
H126     H      0.392320000000     0.044320000000     0.267010000000     0.101125   
H127     H      0.289150000000     0.997410000000     0.232290000000     0.0442252  
H128     H      0.282470000000     0.081360000000     0.220910000000     0.0350966  
H129     H      0.285180000000     0.017870000000     0.353320000000     0.0374138  
H130     H      0.290090000000     0.100940000000     0.336100000000     0.0341551  
H131     H      0.770760000000     0.978770000000     0.187460000000     0.103169   
H132     H      0.796900000000     0.970530000000     0.401270000000     0.102616   
H133     H      0.847870000000     0.941550000000     0.294310000000     0.0365992  
H134     H      0.840790000000     0.025990000000     0.297730000000     0.0340558  
H135     H      0.729780000000     0.930050000000     0.292960000000     0.0364515  
H136     H      0.720390000000     0.014350000000     0.290560000000     0.0296621  
H137     H      0.048980000000     0.267350000000     0.683130000000     0.102166   
H138     H      0.033020000000     0.300550000000     0.894310000000     0.103436   
H139     H      0.100200000000     0.339090000000     0.787990000000     0.0384277  
H140     H      0.015790000000     0.348320000000     0.790810000000     0.0376827  
H141     H      0.091580000000     0.222880000000     0.794180000000     0.0395456  
H142     H      0.007440000000     0.225710000000     0.783360000000     0.0360775  
H143     H      0.087110000000     0.679760000000     0.795450000000     0.102652   
H144     H      0.081210000000     0.891090000000     0.775100000000     0.103176   
H145     H      0.121580000000     0.789210000000     0.723850000000     0.0373794  
H146     H      0.036710000000     0.788390000000     0.725290000000     0.0389259  
H147     H      0.124550000000     0.783220000000     0.844390000000     0.0378729  
H148     H      0.039800000000     0.779820000000     0.846990000000     0.0389644  
H149     H      0.129020000000     0.859030000000     0.257450000000     0.104928   
H150     H      0.975240000000     0.730100000000     0.316300000000     0.108885   
H151     H      0.019210000000     0.774500000000     0.227820000000     0.0295089  
H152     H      0.095310000000     0.738820000000     0.241470000000     0.0366615  
H153     H      0.038650000000     0.834800000000     0.336270000000     0.0379195  
H154     H      0.104350000000     0.781710000000     0.349510000000     0.0340539  
H155     H      0.964170000000     0.173940000000     0.303480000000     0.10072    
H156     H      0.961690000000     0.385390000000     0.276120000000     0.10209    
H157     H      0.005730000000     0.284440000000     0.227280000000     0.0260125  
H158     H      0.921100000000     0.278760000000     0.232370000000     0.0352455  
H159     H      0.010500000000     0.276850000000     0.349730000000     0.0251818  
H160     H      0.925580000000     0.279770000000     0.351140000000     0.0347047  
N1       N      0.579440000000     0.368710000000     0.257070000000    -0.237739   
N2       N      0.578290000000     0.199800000000     0.317890000000    -0.237377   
N3       N      0.522120000000     0.754860000000     0.202090000000    -0.237662   
N4       N      0.536250000000     0.810950000000     0.371160000000    -0.237397   
N5       N      0.476210000000     0.867490000000     0.757690000000    -0.233091   
N6       N      0.489670000000     0.697530000000     0.811700000000    -0.233034   
N7       N      0.557630000000     0.254100000000     0.708620000000    -0.238051   
N8       N      0.515960000000     0.304790000000     0.873420000000    -0.237774   
N9       N      0.812010000000     0.364480000000     0.541110000000    -0.238709   
N10      N      0.755900000000     0.197000000000     0.552340000000    -0.24211    
N11      N      0.866310000000     0.752120000000     0.581890000000    -0.231458   
N12      N      0.696710000000     0.810630000000     0.578030000000    -0.233812   
N13      N      0.201710000000     0.314470000000     0.490560000000    -0.237487   
N14      N      0.371010000000     0.255710000000     0.482090000000    -0.234455   
N15      N      0.307230000000     0.871010000000     0.530350000000    -0.234811   
N16      N      0.251900000000     0.704090000000     0.505690000000    -0.236813   
N17      N      0.751140000000     0.565460000000     0.204080000000    -0.23829    
N18      N      0.806210000000     0.559850000000     0.374030000000    -0.238072   
N19      N      0.361590000000     0.552160000000     0.252540000000    -0.242687   
N20      N      0.192860000000     0.544030000000     0.306580000000    -0.24299    
N21      N      0.315250000000     0.475420000000     0.865020000000    -0.234262   
N22      N      0.257240000000     0.478930000000     0.694150000000    -0.234246   
N23      N      0.873410000000     0.537020000000     0.762540000000    -0.236296   
N24      N      0.703430000000     0.527470000000     0.813510000000    -0.235817   
N25      N      0.873790000000     0.806930000000     0.995610000000    -0.227181   
N26      N      0.704260000000     0.747420000000     0.984920000000    -0.231558   
N27      N      0.805110000000     0.191880000000     0.050490000000    -0.237437   
N28      N      0.751100000000     0.360790000000     0.047780000000    -0.238072   
N29      N      0.260360000000     0.872650000000     0.059460000000    -0.237997   
N30      N      0.315080000000     0.704200000000     0.053160000000    -0.238511   
N31      N      0.192400000000     0.258790000000     0.077610000000    -0.239221   
N32      N      0.361660000000     0.316370000000     0.077150000000    -0.239112   
N33      N      0.866430000000     0.026360000000     0.818150000000    -0.234451   
N34      N      0.698500000000     0.044360000000     0.764050000000    -0.238719   
N35      N      0.250050000000     0.093810000000     0.873080000000    -0.23454    
N36      N      0.310430000000     0.082640000000     0.703580000000    -0.232141   
N37      N      0.202290000000     0.036090000000     0.261560000000    -0.242496   
N38      N      0.371330000000     0.047880000000     0.312090000000    -0.239992   
N39      N      0.814700000000     0.984650000000     0.209800000000    -0.235971   
N40      N      0.753360000000     0.977040000000     0.378350000000    -0.238852   
N41      N      0.051480000000     0.312140000000     0.704270000000    -0.236946   
N42      N      0.038940000000     0.256000000000     0.873370000000    -0.236751   
N43      N      0.080780000000     0.702440000000     0.751530000000    -0.23164    
N44      N      0.078230000000     0.867900000000     0.819100000000    -0.231386   
N45      N      0.097720000000     0.836970000000     0.225770000000    -0.232416   
N46      N      0.012370000000     0.740100000000     0.347810000000    -0.237211   
N47      N      0.970410000000     0.196370000000     0.259420000000    -0.239808   
N48      N      0.970110000000     0.363540000000     0.320120000000    -0.240188   
O1       O      0.990230000000     0.187370000000     0.150380000000    -0.616435   
O2       O      0.068030000000     0.859350000000     0.120700000000    -0.543781   
O3       O      0.923420000000     0.001310000000     0.199590000000    -0.612675   
O4       O      0.101380000000     0.026140000000     0.222140000000    -0.627203   
O5       O      0.189050000000     0.045330000000     0.152700000000    -0.64338    
O6       O      0.855180000000     0.997230000000     0.108930000000    -0.570451   
O7       O      0.052020000000     0.932600000000     0.205950000000    -0.622498   
O8       O      0.992330000000     0.097790000000     0.219590000000    -0.636586   
O9       O      0.097500000000     0.976050000000     0.103820000000    -1.47896    
O10      O      0.954580000000     0.076650000000     0.101710000000    -1.45808    
O11      O      0.968750000000     0.942110000000     0.089540000000    -1.0473     
O12      O      0.078250000000     0.099240000000     0.121230000000    -1.64189    
O13      O      0.068130000000     0.876810000000     0.930280000000    -0.546379   
O14      O      0.023110000000     0.214650000000     0.973390000000    -0.617246   
O15      O      0.881650000000     0.916090000000     0.007980000000    -0.555075   
O16      O      0.216170000000     0.972160000000     0.062480000000    -0.620411   
O17      O      0.184830000000     0.149720000000     0.067780000000    -0.636176   
O18      O      0.849940000000     0.093460000000     0.035610000000    -0.567253   
O19      O      0.966070000000     0.038680000000     0.859460000000    -0.575259   
O20      O      0.142670000000     0.070940000000     0.884020000000    -0.568011   
O21      O      0.878100000000     0.016620000000     0.927710000000    -0.56013    
O22      O      0.210610000000     0.078560000000     0.974570000000    -0.617927   
O23      O      0.973360000000     0.849930000000     0.012910000000    -0.56423    
O24      O      0.914150000000     0.184400000000     0.055670000000    -0.616688   
O25      O      0.092600000000     0.215140000000     0.067530000000    -0.625405   
O26      O      0.152800000000     0.881090000000     0.039890000000    -0.574908   
O27      O      0.064960000000     0.966960000000     0.861280000000    -0.567221   
O28      O      0.043790000000     0.146710000000     0.884770000000    -0.567077   
O29      O      0.090620000000     0.112630000000     0.994980000000    -1.46949    
O30      O      0.991270000000     0.970360000000     0.965570000000    -1.3405     
O31      O      0.960060000000     0.094000000000     0.967780000000    -1.03926    
O32      O      0.117270000000     0.981730000000     0.971140000000    -1.0373     
O33      O      0.993170000000     0.374660000000     0.428380000000    -0.61857    
O34      O      0.042850000000     0.708630000000     0.450900000000    -0.536859   
O35      O      0.915010000000     0.549330000000     0.381440000000    -0.607826   
O36      O      0.093260000000     0.546210000000     0.350740000000    -0.644968   
O37      O      0.184760000000     0.528800000000     0.415410000000    -0.637061   
O38      O      0.850270000000     0.555920000000     0.474370000000    -0.58246    
O39      O      0.013480000000     0.635190000000     0.369480000000    -0.647759   
O40      O      0.989730000000     0.463230000000     0.358000000000    -0.642534   
O41      O      0.092260000000     0.593070000000     0.466210000000    -1.45865    
O42      O      0.954080000000     0.484090000000     0.477880000000    -1.48056    
O43      O      0.961710000000     0.618600000000     0.488710000000    -1.04853    
O44      O      0.078270000000     0.467890000000     0.452440000000    -1.64551    
O45      O      0.065630000000     0.691780000000     0.641030000000    -0.540785   
O46      O      0.035100000000     0.351640000000     0.603850000000    -0.624327   
O47      O      0.877950000000     0.643050000000     0.570790000000    -0.562704   
O48      O      0.212040000000     0.602780000000     0.504650000000    -0.618377   
O49      O      0.189970000000     0.423570000000     0.500630000000    -0.622419   
O50      O      0.853750000000     0.464060000000     0.550390000000    -0.584153   
O51      O      0.973010000000     0.526770000000     0.718610000000    -0.570046   
O52      O      0.149510000000     0.499480000000     0.686520000000    -0.574472   
O53      O      0.882200000000     0.544760000000     0.653210000000    -0.587637   
O54      O      0.214770000000     0.495750000000     0.593670000000    -0.608092   
O55      O      0.966840000000     0.712850000000     0.564400000000    -0.558694   
O56      O      0.920550000000     0.375470000000     0.527970000000    -0.607443   
O57      O      0.100970000000     0.353890000000     0.506140000000    -0.621626   
O58      O      0.144850000000     0.691050000000     0.526970000000    -0.57503    
O59      O      0.069880000000     0.602450000000     0.711130000000    -0.573534   
O60      O      0.053170000000     0.421530000000     0.691530000000    -0.566146   
O61      O      0.096340000000     0.456950000000     0.578070000000    -1.46637    
O62      O      0.991560000000     0.594380000000     0.610580000000    -1.35889    
O63      O      0.966320000000     0.468850000000     0.611310000000    -1.05508    
O64      O      0.117420000000     0.588840000000     0.599400000000    -1.04371    
O65      O      0.711290000000     0.993920000000     0.478120000000    -0.625369   
O66      O      0.380930000000     0.051100000000     0.421740000000    -0.576904   
O67      O      0.547200000000     0.919750000000     0.382100000000    -0.608747   
O68      O      0.565580000000     0.099280000000     0.359020000000    -0.622925   
O69      O      0.565530000000     0.189350000000     0.427790000000    -0.630526   
O70      O      0.523220000000     0.853240000000     0.471020000000    -0.584069   
O71      O      0.470370000000     0.032270000000     0.354530000000    -0.621344   
O72      O      0.644860000000     0.995080000000     0.385930000000    -0.619806   
O73      O      0.490480000000     0.095030000000     0.460280000000    -1.47153    
O74      O      0.592330000000     0.955660000000     0.494420000000    -1.46419    
O75      O      0.459760000000     0.964970000000     0.472620000000    -1.0519     
O76      O      0.615160000000     0.079400000000     0.477410000000    -1.63952    
O77      O      0.352440000000     0.067820000000     0.603080000000    -0.563604   
O78      O      0.687390000000     0.030520000000     0.655040000000    -0.614942   
O79      O      0.415810000000     0.880280000000     0.545060000000    -0.568447   
O80      O      0.471060000000     0.214070000000     0.498750000000    -0.614157   
O81      O      0.647850000000     0.187050000000     0.536470000000    -0.637049   
O82      O      0.596230000000     0.853140000000     0.567960000000    -0.568162   
O83      O      0.493240000000     0.968340000000     0.718640000000    -0.558743   
O84      O      0.532210000000     0.147700000000     0.695970000000    -0.567574   
O85      O      0.492920000000     0.878840000000     0.648990000000    -0.573214   
O86      O      0.557830000000     0.213730000000     0.607190000000    -0.631474   
O87      O      0.350520000000     0.970520000000     0.525020000000    -0.569022   
O88      O      0.687420000000     0.919840000000     0.567810000000    -0.604533   
O89      O      0.713120000000     0.097370000000     0.558690000000    -0.637819   
O90      O      0.379740000000     0.147560000000     0.500460000000    -0.567299   
O91      O      0.419460000000     0.068310000000     0.694880000000    -0.56587    
O92      O      0.598000000000     0.049160000000     0.722240000000    -0.582124   
O93      O      0.594600000000     0.094750000000     0.602100000000    -1.46947    
O94      O      0.453710000000     0.990540000000     0.598310000000    -1.3617     
O95      O      0.574600000000     0.964510000000     0.629000000000    -1.06267    
O96      O      0.462870000000     0.117980000000     0.591680000000    -1.04706    
O97      O      0.374120000000     0.424790000000     0.063300000000    -0.630723   
O98      O      0.711590000000     0.460670000000     0.030680000000    -0.57523    
O99      O      0.531330000000     0.348850000000     0.971930000000    -0.620272   
O100     O      0.564780000000     0.377980000000     0.147370000000    -0.623251   
O101     O      0.565130000000     0.468780000000     0.215110000000    -0.631393   
O102     O      0.517620000000     0.414680000000     0.880370000000    -0.569238   
O103     O      0.642410000000     0.374120000000     0.053170000000    -0.620178   
O104     O      0.462960000000     0.354940000000     0.065640000000    -0.629285   
O105     O      0.607770000000     0.486130000000     0.096690000000    -1.47545    
O106     O      0.471250000000     0.455020000000     0.989400000000    -1.4702     
O107     O      0.602590000000     0.464670000000     0.962650000000    -1.04802    
O108     O      0.482990000000     0.471420000000     0.115790000000    -1.64855    
O109     O      0.691300000000     0.638970000000     0.000660000000    -0.561781   
O110     O      0.353220000000     0.602830000000     0.053100000000    -0.629169   
O111     O      0.602060000000     0.518270000000     0.852840000000    -0.577181   
O112     O      0.642320000000     0.557300000000     0.192490000000    -0.622065   
O113     O      0.462990000000     0.553320000000     0.213480000000    -0.648194   
O114     O      0.423150000000     0.494390000000     0.876300000000    -0.571408   
O115     O      0.503190000000     0.687130000000     0.920920000000    -0.569246   
O116     O      0.518650000000     0.713220000000     0.100850000000    -0.579044   
O117     O      0.503800000000     0.596810000000     0.852310000000    -0.563174   
O118     O      0.533840000000     0.646250000000     0.191320000000    -0.61741    
O119     O      0.689710000000     0.537850000000     0.922240000000    -0.572788   
O120     O      0.354030000000     0.493800000000     0.966430000000    -0.607281   
O121     O      0.374990000000     0.533290000000     0.144640000000    -0.63157    
O122     O      0.711550000000     0.557100000000     0.102450000000    -0.575761   
O123     O      0.602520000000     0.708960000000     0.997820000000    -0.557676   
O124     O      0.421960000000     0.690030000000     0.031450000000    -0.569544   
O125     O      0.470800000000     0.595180000000     0.095040000000    -1.47649    
O126     O      0.578960000000     0.589980000000     0.956100000000    -1.36035    
O127     O      0.451640000000     0.585470000000     0.961450000000    -1.0541     
O128     O      0.601990000000     0.619540000000     0.079170000000    -1.05889    


