data_structure

_audit_creation_method RASPA-1.0
_audit_creation_date 2023-5-19
_audit_author_name 'Poobodin Mano'

_cell_length_a    20.2094
_cell_length_b    20.266
_cell_length_c    20.2366
_cell_angle_alpha 90
_cell_angle_beta  90
_cell_angle_gamma 90
_cell_volume      8288.18

_symmetry_cell_setting          triclinic
_symmetry_space_group_name_Hall 'P 1'
_symmetry_space_group_name_H-M  'P 1'
_symmetry_Int_Tables_number     1

_symmetry_equiv_pos_as_xyz 'x,y,z'

loop_
_atom_site_label
_atom_site_type_symbol
_atom_site_fract_x
_atom_site_fract_y
_atom_site_fract_z
_atom_site_charge
C1       C      0.029580000000     0.153850000000     0.156910000000     0.73542    
C2       C      0.001450000000     0.850150000000     0.159870000000     0.696928   
C3       C      0.850980000000     0.015950000000     0.160430000000     0.694743   
C4       C      0.159190000000     0.010100000000     0.151830000000     0.754178   
C5       C      0.991940000000     0.848100000000     0.854820000000     0.565069   
C6       C      0.017850000000     0.153620000000     0.846210000000     0.640062   
C7       C      0.843250000000     0.857550000000     0.004870000000     0.58291    
C8       C      0.148500000000     0.840900000000     0.017340000000     0.710059   
C9       C      0.163240000000     0.147580000000     0.024610000000     0.707202   
C10      C      0.855650000000     0.162010000000     0.011670000000     0.695321   
C11      C      0.849080000000     0.005940000000     0.855910000000     0.576925   
C12      C      0.157010000000     0.004390000000     0.847570000000     0.659083   
C13      C      0.028220000000     0.349470000000     0.351130000000     0.630679   
C14      C      0.990560000000     0.657320000000     0.353380000000     0.643405   
C15      C      0.855070000000     0.526320000000     0.346680000000     0.644924   
C16      C      0.161970000000     0.477390000000     0.356390000000     0.630958   
C17      C      0.997650000000     0.653350000000     0.658620000000     0.564163   
C18      C      0.005220000000     0.349870000000     0.654960000000     0.570625   
C19      C      0.857320000000     0.657370000000     0.481100000000     0.584666   
C20      C      0.163550000000     0.652810000000     0.500460000000     0.640167   
C21      C      0.150340000000     0.350010000000     0.492350000000     0.597638   
C22      C      0.844200000000     0.351270000000     0.482980000000     0.629812   
C23      C      0.844460000000     0.509380000000     0.650720000000     0.571891   
C24      C      0.148560000000     0.488330000000     0.661470000000     0.57339    
C25      C      0.655440000000     0.022860000000     0.353450000000     0.739848   
C26      C      0.349850000000     0.009410000000     0.346740000000     0.671751   
C27      C      0.507460000000     0.847090000000     0.352360000000     0.689029   
C28      C      0.515660000000     0.154630000000     0.350340000000     0.736016   
C29      C      0.350540000000     0.998790000000     0.652780000000     0.571246   
C30      C      0.655980000000     0.012240000000     0.659630000000     0.64454    
C31      C      0.353900000000     0.849890000000     0.504710000000     0.596788   
C32      C      0.343900000000     0.154420000000     0.495170000000     0.682653   
C33      C      0.652310000000     0.155800000000     0.482120000000     0.724945   
C34      C      0.659350000000     0.849850000000     0.491170000000     0.677673   
C35      C      0.500150000000     0.852590000000     0.656530000000     0.557378   
C36      C      0.507230000000     0.157600000000     0.656550000000     0.658663   
C37      C      0.355640000000     0.345990000000     0.025200000000     0.723318   
C38      C      0.662400000000     0.354420000000     0.997360000000     0.696319   
C39      C      0.496760000000     0.351600000000     0.847420000000     0.700498   
C40      C      0.502530000000     0.346800000000     0.153060000000     0.758519   
C41      C      0.649490000000     0.659770000000     0.997880000000     0.557467   
C42      C      0.344920000000     0.651520000000     0.020810000000     0.659601   
C43      C      0.650190000000     0.512880000000     0.846350000000     0.584071   
C44      C      0.665420000000     0.503180000000     0.149990000000     0.700754   
C45      C      0.358380000000     0.474680000000     0.162190000000     0.724233   
C46      C      0.345220000000     0.486630000000     0.852460000000     0.688058   
C47      C      0.498210000000     0.658590000000     0.854850000000     0.556629   
C48      C      0.496630000000     0.652730000000     0.160980000000     0.680195   
C49      C      0.513860000000     0.267270000000     0.315750000000     0.0458226  
C50      C      0.515370000000     0.182950000000     0.236170000000     0.0418073  
C51      C      0.509250000000     0.314420000000     0.265560000000     0.0424716  
C52      C      0.510580000000     0.229770000000     0.185100000000     0.0564109  
C53      C      0.497590000000     0.813950000000     0.240420000000     0.0550823  
C54      C      0.510460000000     0.734120000000     0.324010000000     0.0362057  
C55      C      0.493700000000     0.764270000000     0.193410000000     0.029909   
C56      C      0.507230000000     0.683590000000     0.277360000000     0.0637454  
C57      C      0.496830000000     0.739300000000     0.691250000000     0.041317   
C58      C      0.501200000000     0.823260000000     0.770870000000     0.0320703  
C59      C      0.496840000000     0.691600000000     0.741690000000     0.0375336  
C60      C      0.501870000000     0.776000000000     0.822070000000     0.0575439  
C61      C      0.514480000000     0.270120000000     0.688180000000     0.0516691  
C62      C      0.487490000000     0.188960000000     0.767210000000     0.0308623  
C63      C      0.510160000000     0.318630000000     0.736560000000     0.0366236  
C64      C      0.480010000000     0.237490000000     0.815510000000     0.0662121  
C65      C      0.765100000000     0.189260000000     0.479820000000     0.0545654  
C66      C      0.681210000000     0.268560000000     0.466290000000     0.0451124  
C67      C      0.812540000000     0.239070000000     0.480090000000     0.0326024  
C68      C      0.728630000000     0.319200000000     0.465320000000     0.0547193  
C69      C      0.693830000000     0.737140000000     0.483300000000     0.0457378  
C70      C      0.773350000000     0.821480000000     0.480100000000     0.0461904  
C71      C      0.744190000000     0.689760000000     0.479560000000     0.0337937  
C72      C      0.824500000000     0.774440000000     0.475640000000     0.050835   
C73      C      0.262790000000     0.316010000000     0.503600000000     0.0365935  
C74      C      0.180730000000     0.236880000000     0.481210000000     0.0307637  
C75      C      0.310730000000     0.266370000000     0.505070000000     0.0494695  
C76      C      0.228820000000     0.186880000000     0.480510000000     0.0610217  
C77      C      0.241680000000     0.815030000000     0.507150000000     0.0401696  
C78      C      0.326800000000     0.736210000000     0.498830000000     0.0348431  
C79      C      0.194830000000     0.764850000000     0.505280000000     0.0413659  
C80      C      0.280210000000     0.685220000000     0.495570000000     0.0604938  
C81      C      0.743050000000     0.523470000000     0.311640000000     0.0366983  
C82      C      0.828130000000     0.526780000000     0.232430000000     0.0377965  
C83      C      0.696690000000     0.514730000000     0.261720000000     0.0518291  
C84      C      0.781930000000     0.518100000000     0.181410000000     0.0577007  
C85      C      0.196380000000     0.465610000000     0.244050000000     0.0382507  
C86      C      0.276460000000     0.467510000000     0.327930000000     0.0285661  
C87      C      0.246270000000     0.464670000000     0.196120000000     0.0418726  
C88      C      0.327390000000     0.466020000000     0.280120000000     0.0608416  
C89      C      0.181530000000     0.491010000000     0.774830000000     0.0316454  
C90      C      0.259710000000     0.467600000000     0.691970000000     0.0355512  
C91      C      0.231810000000     0.490020000000     0.822350000000     0.0527841  
C92      C      0.310160000000     0.464590000000     0.739220000000     0.0602722  
C93      C      0.762940000000     0.513910000000     0.812260000000     0.0442474  
C94      C      0.678990000000     0.518330000000     0.732070000000     0.0337638  
C95      C      0.810730000000     0.512850000000     0.762640000000     0.0326732  
C96      C      0.726760000000     0.518160000000     0.681360000000     0.0590338  
C97      C      0.762090000000     0.695480000000     0.992360000000     0.0397864  
C98      C      0.677980000000     0.774090000000     0.006100000000     0.0274906  
C99      C      0.809670000000     0.745570000000     0.995150000000     0.0394189  
C100     C      0.725500000000     0.825080000000     0.009870000000     0.0593334  
C101     C      0.823840000000     0.275170000000     0.014580000000     0.0521748  
C102     C      0.744680000000     0.192510000000     0.993480000000     0.0417701  
C103     C      0.774580000000     0.323140000000     0.009440000000     0.0329484  
C104     C      0.695890000000     0.240080000000     0.984180000000     0.0612616  
C105     C      0.310420000000     0.762960000000     0.022210000000     0.0343475  
C106     C      0.231140000000     0.678270000000     0.031180000000     0.0447173  
C107     C      0.260420000000     0.809550000000     0.021270000000     0.0553656  
C108     C      0.180020000000     0.724910000000     0.031240000000     0.0573466  
C109     C      0.243120000000     0.310410000000     0.030530000000     0.0458502  
C110     C      0.327770000000     0.231470000000     0.036890000000     0.0393012  
C111     C      0.195750000000     0.260110000000     0.030570000000     0.0389977  
C112     C      0.280240000000     0.180180000000     0.039020000000     0.0515963  
C113     C      0.768920000000     0.007770000000     0.693410000000     0.0564733  
C114     C      0.684900000000     0.016770000000     0.773170000000     0.034987   
C115     C      0.816400000000     0.005430000000     0.743450000000     0.0277368  
C116     C      0.731990000000     0.015210000000     0.824020000000     0.0586232  
C117     C      0.237560000000     0.990140000000     0.686130000000     0.0430648  
C118     C      0.319850000000     0.014660000000     0.764640000000     0.0283162  
C119     C      0.189430000000     0.992900000000     0.735630000000     0.0393617  
C120     C      0.271900000000     0.020030000000     0.814210000000     0.0663518  
C121     C      0.267600000000     0.982470000000     0.188310000000     0.0546411  
C122     C      0.196130000000     0.043060000000     0.257370000000     0.0435322  
C123     C      0.315380000000     0.981990000000     0.238230000000     0.0401005  
C124     C      0.246150000000     0.048430000000     0.304500000000     0.0572574  
C125     C      0.689310000000     0.031560000000     0.240880000000     0.0523838  
C126     C      0.769030000000     0.020300000000     0.324730000000     0.0465076  
C127     C      0.739210000000     0.028910000000     0.193250000000     0.0321735  
C128     C      0.819360000000     0.014980000000     0.277510000000     0.0539953  
C129     C      0.007610000000     0.315760000000     0.767570000000     0.0312811  
C130     C      0.022300000000     0.237280000000     0.683200000000     0.0352828  
C131     C      0.012120000000     0.265970000000     0.814920000000     0.0519785  
C132     C      0.028540000000     0.186910000000     0.730390000000     0.0592248  
C133     C      0.998960000000     0.766690000000     0.692260000000     0.0448098  
C134     C      0.985430000000     0.683520000000     0.771790000000     0.0306413  
C135     C      0.996660000000     0.814690000000     0.742140000000     0.0332972  
C136     C      0.982730000000     0.731100000000     0.822410000000     0.0601703  
C137     C      0.978310000000     0.691410000000     0.241690000000     0.042831   
C138     C      0.005780000000     0.769250000000     0.323620000000     0.0325925  
C139     C      0.983160000000     0.740180000000     0.193550000000     0.0377012  
C140     C      0.012870000000     0.818330000000     0.275560000000     0.061651   
C141     C      0.042440000000     0.315810000000     0.238380000000     0.0382347  
C142     C      0.033680000000     0.236050000000     0.321960000000     0.0285551  
C143     C      0.042510000000     0.265810000000     0.190350000000     0.0399005  
C144     C      0.032740000000     0.185460000000     0.274540000000     0.0613476  
H1       H      0.954990000000     0.958250000000     0.054680000000    -1.32776    
H2       H      0.045610000000     0.041000000000     0.042160000000    -1.12551    
H3       H      0.949200000000     0.116140000000     0.944460000000    -0.517018   
H4       H      0.111740000000     0.936680000000     0.944010000000    -0.542714   
H5       H      0.967100000000     0.542480000000     0.460180000000    -0.833202   
H6       H      0.042490000000     0.462790000000     0.461800000000    -1.46591    
H7       H      0.937230000000     0.392750000000     0.558000000000    -0.302188   
H8       H      0.112980000000     0.559390000000     0.565660000000    -0.315315   
H9       H      0.456780000000     0.955380000000     0.454130000000    -1.25327    
H10      H      0.542180000000     0.042900000000     0.464100000000    -1.08909    
H11      H      0.615470000000     0.944360000000     0.563200000000    -0.528599   
H12      H      0.441150000000     0.114170000000     0.561000000000    -0.554427   
H13      H      0.549850000000     0.456340000000     0.953740000000    -1.26671    
H14      H      0.465770000000     0.461750000000     0.043700000000    -1.1641     
H15      H      0.386860000000     0.558540000000     0.948260000000    -0.535989   
H16      H      0.564250000000     0.561250000000     0.113000000000    -0.610177   
H17      H      0.508180000000     0.365520000000     0.281090000000     0.0285331  
H18      H      0.515000000000     0.284670000000     0.366400000000     0.0264244  
H19      H      0.518040000000     0.131020000000     0.222940000000     0.0295646  
H20      H      0.486560000000     0.779850000000     0.142640000000     0.0338896  
H21      H      0.493190000000     0.864580000000     0.223630000000     0.0227489  
H22      H      0.517490000000     0.720880000000     0.375620000000     0.0356139  
H23      H      0.494700000000     0.640460000000     0.726170000000     0.0349191  
H24      H      0.495010000000     0.722130000000     0.640550000000     0.0332482  
H25      H      0.503400000000     0.875160000000     0.784240000000     0.0387847  
H26      H      0.521730000000     0.368810000000     0.721950000000     0.0289943  
H27      H      0.527690000000     0.285230000000     0.638490000000     0.0252121  
H28      H      0.476150000000     0.138110000000     0.780140000000     0.0346029  
H29      H      0.863560000000     0.223680000000     0.486270000000     0.0329734  
H30      H      0.782190000000     0.138860000000     0.485510000000     0.0273637  
H31      H      0.629450000000     0.281440000000     0.459370000000     0.031822   
H32      H      0.728660000000     0.638560000000     0.479900000000     0.0357992  
H33      H      0.643160000000     0.719790000000     0.485870000000     0.0299022  
H34      H      0.786460000000     0.873500000000     0.479200000000     0.0279382  
H35      H      0.361140000000     0.281290000000     0.515710000000     0.0253072  
H36      H      0.278920000000     0.366170000000     0.513010000000     0.0336811  
H37      H      0.130090000000     0.223670000000     0.469200000000     0.0355699  
H38      H      0.143460000000     0.779940000000     0.508570000000     0.0319988  
H39      H      0.224020000000     0.865370000000     0.511490000000     0.0318859  
H40      H      0.378940000000     0.723470000000     0.495330000000     0.0361092  
H41      H      0.645570000000     0.510500000000     0.277380000000     0.0253832  
H42      H      0.725160000000     0.524940000000     0.362140000000     0.0328742  
H43      H      0.880160000000     0.531340000000     0.219560000000     0.0274252  
H44      H      0.230190000000     0.463370000000     0.145020000000     0.0268865  
H45      H      0.145570000000     0.465100000000     0.226870000000     0.0253297  
H46      H      0.289830000000     0.468090000000     0.379970000000     0.0359202  
H47      H      0.217680000000     0.500380000000     0.872980000000     0.024341   
H48      H      0.131510000000     0.501490000000     0.791130000000     0.0356632  
H49      H      0.271980000000     0.456500000000     0.640840000000     0.0354745  
H50      H      0.861810000000     0.510490000000     0.778850000000     0.0376285  
H51      H      0.780150000000     0.512330000000     0.862980000000     0.0325689  
H52      H      0.626990000000     0.521170000000     0.718630000000     0.0350389  
H53      H      0.860720000000     0.730110000000     0.990520000000     0.034465   
H54      H      0.779470000000     0.645280000000     0.985930000000     0.0339426  
H55      H      0.626040000000     0.786870000000     0.011600000000     0.0379141  
H56      H      0.789100000000     0.373940000000     0.017950000000     0.0329675  
H57      H      0.873890000000     0.291010000000     0.025590000000     0.0212128  
H58      H      0.731600000000     0.141170000000     0.985230000000     0.033448   
H59      H      0.276100000000     0.860560000000     0.017350000000     0.0274899  
H60      H      0.360970000000     0.780600000000     0.018790000000     0.0332361  
H61      H      0.218530000000     0.626350000000     0.036020000000     0.0265081  
H62      H      0.144550000000     0.275740000000     0.027560000000     0.0279689  
H63      H      0.225380000000     0.360820000000     0.027630000000     0.0253484  
H64      H      0.379830000000     0.218730000000     0.040260000000     0.0292527  
H65      H      0.867470000000     0.000540000000     0.727820000000     0.0366958  
H66      H      0.785930000000     0.004520000000     0.642700000000     0.0251562  
H67      H      0.632990000000     0.021800000000     0.786400000000     0.0362625  
H68      H      0.138860000000     0.982320000000     0.721210000000     0.0324166  
H69      H      0.221650000000     0.978730000000     0.636250000000     0.0336866  
H70      H      0.371000000000     0.025310000000     0.777440000000     0.0372964  
H71      H      0.360960000000     0.955160000000     0.229300000000     0.0247103  
H72      H      0.278400000000     0.956840000000     0.142500000000     0.0248089  
H73      H      0.151630000000     0.071930000000     0.264020000000     0.0278233  
H74      H      0.723830000000     0.033640000000     0.142140000000     0.0339278  
H75      H      0.638700000000     0.037440000000     0.224100000000     0.025137   
H76      H      0.782360000000     0.016120000000     0.376630000000     0.0303313  
H77      H      0.006640000000     0.280830000000     0.866090000000     0.0247497  
H78      H      0.999790000000     0.365810000000     0.784830000000     0.0368051  
H79      H      0.028180000000     0.224750000000     0.631300000000     0.0355518  
H80      H      0.001730000000     0.865600000000     0.726510000000     0.0342774  
H81      H      0.005270000000     0.783360000000     0.641740000000     0.0302897  
H82      H      0.980130000000     0.631820000000     0.785130000000     0.0395324  
H83      H      0.972190000000     0.725650000000     0.143150000000     0.0296785  
H84      H      0.965090000000     0.641970000000     0.225970000000     0.0277244  
H85      H      0.017290000000     0.781590000000     0.374600000000     0.0343773  
H86      H      0.046620000000     0.281220000000     0.139210000000     0.0257289  
H87      H      0.045910000000     0.366500000000     0.221630000000     0.0243244  
H88      H      0.030460000000     0.222590000000     0.373880000000     0.0357759  
N1       N      0.515980000000     0.201510000000     0.301150000000    -0.244942   
N2       N      0.506550000000     0.296820000000     0.199930000000    -0.245971   
N3       N      0.505660000000     0.798720000000     0.305550000000    -0.23713    
N4       N      0.498620000000     0.698930000000     0.210850000000    -0.228408   
N5       N      0.499000000000     0.805210000000     0.705720000000    -0.204012   
N6       N      0.499060000000     0.708760000000     0.807540000000    -0.203503   
N7       N      0.504290000000     0.205400000000     0.703940000000    -0.227169   
N8       N      0.494590000000     0.302700000000     0.800540000000    -0.237179   
N9       N      0.699340000000     0.204180000000     0.475440000000    -0.245088   
N10      N      0.794990000000     0.304430000000     0.475650000000    -0.218246   
N11      N      0.708430000000     0.802970000000     0.485030000000    -0.229941   
N12      N      0.810020000000     0.707250000000     0.477690000000    -0.210893   
N13      N      0.197690000000     0.301250000000     0.492210000000    -0.214121   
N14      N      0.294440000000     0.201580000000     0.493800000000    -0.231783   
N15      N      0.307540000000     0.800680000000     0.504210000000    -0.216423   
N16      N      0.213100000000     0.699690000000     0.500030000000    -0.221892   
N17      N      0.808850000000     0.527480000000     0.297190000000    -0.226157   
N18      N      0.715080000000     0.511010000000     0.196370000000    -0.234187   
N19      N      0.211310000000     0.469400000000     0.309910000000    -0.222032   
N20      N      0.312170000000     0.467490000000     0.212870000000    -0.2412     
N21      N      0.196080000000     0.482240000000     0.709470000000    -0.206577   
N22      N      0.296690000000     0.479660000000     0.804830000000    -0.232455   
N23      N      0.697050000000     0.515390000000     0.797120000000    -0.213379   
N24      N      0.793790000000     0.513580000000     0.696850000000    -0.206606   
N25      N      0.696190000000     0.709500000000     0.997960000000    -0.203085   
N26      N      0.792620000000     0.810850000000     0.003360000000    -0.212769   
N27      N      0.808330000000     0.209970000000     0.007940000000    -0.23649    
N28      N      0.710170000000     0.306040000000     0.996030000000    -0.233657   
N29      N      0.295690000000     0.697400000000     0.025130000000    -0.227312   
N30      N      0.194910000000     0.791460000000     0.023600000000    -0.23618    
N31      N      0.309270000000     0.296260000000     0.031340000000    -0.242991   
N32      N      0.213230000000     0.194450000000     0.032160000000    -0.237767   
N33      N      0.703220000000     0.012690000000     0.708340000000    -0.224603   
N34      N      0.799010000000     0.008600000000     0.809110000000    -0.207044   
N35      N      0.302770000000     0.000140000000     0.700910000000    -0.208363   
N36      N      0.206030000000     0.006450000000     0.800060000000    -0.226169   
N37      N      0.207370000000     0.011290000000     0.199100000000    -0.25095    
N38      N      0.303680000000     0.013040000000     0.297270000000    -0.233881   
N39      N      0.704240000000     0.026360000000     0.306480000000    -0.248214   
N40      N      0.804430000000     0.019830000000     0.210500000000    -0.232321   
N41      N      0.011180000000     0.301210000000     0.701750000000    -0.206416   
N42      N      0.020450000000     0.201060000000     0.797130000000    -0.223863   
N43      N      0.994160000000     0.701050000000     0.707120000000    -0.205365   
N44      N      0.989740000000     0.797980000000     0.807730000000    -0.205266   
N45      N      0.989770000000     0.705990000000     0.306550000000    -0.226876   
N46      N      0.999880000000     0.803850000000     0.209710000000    -0.235581   
N47      N      0.035900000000     0.300950000000     0.304030000000    -0.222478   
N48      N      0.035680000000     0.200390000000     0.207210000000    -0.242527   
O1       O      0.026550000000     0.173860000000     0.093480000000    -1.01172    
O2       O      0.000040000000     0.829380000000     0.096700000000    -0.785542   
O3       O      0.915280000000     0.011760000000     0.176420000000    -1.06711    
O4       O      0.096040000000     0.014980000000     0.171250000000    -1.11211    
O5       O      0.177530000000     0.002940000000     0.088960000000    -1.09191    
O6       O      0.830320000000     0.016350000000     0.097150000000    -0.800991   
O7       O      0.001630000000     0.914290000000     0.176280000000    -1.0749     
O8       O      0.024330000000     0.090540000000     0.173390000000    -1.13466    
O9       O      0.072550000000     0.936640000000     0.074430000000    -2.16337    
O10      O      0.944200000000     0.078100000000     0.074920000000    -2.13286    
O11      O      0.929710000000     0.935440000000     0.080830000000    -0.878106   
O12      O      0.018420000000     0.016880000000     0.016860000000    -2.61007    
O13      O      0.991470000000     0.831600000000     0.919390000000    -0.715895   
O14      O      0.018270000000     0.173350000000     0.910110000000    -0.91281    
O15      O      0.827860000000     0.922520000000     0.005710000000    -0.741763   
O16      O      0.170230000000     0.903350000000     0.010480000000    -0.970995   
O17      O      0.178700000000     0.083430000000     0.019040000000    -1.06412    
O18      O      0.835130000000     0.099110000000     0.013380000000    -0.80504    
O19      O      0.912810000000     0.005190000000     0.834860000000    -0.580298   
O20      O      0.093180000000     0.003570000000     0.828500000000    -0.624031   
O21      O      0.832530000000     0.005660000000     0.920340000000    -0.739423   
O22      O      0.174940000000     0.000760000000     0.911320000000    -0.981968   
O23      O      0.906660000000     0.835570000000     0.005220000000    -0.731296   
O24      O      0.919990000000     0.179440000000     0.009160000000    -0.9389     
O25      O      0.100620000000     0.169130000000     0.019980000000    -1.05593    
O26      O      0.084100000000     0.825690000000     0.016920000000    -0.779899   
O27      O      0.997480000000     0.911620000000     0.834080000000    -0.57275    
O28      O      0.011160000000     0.090120000000     0.828880000000    -0.624641   
O29      O      0.076810000000     0.069480000000     0.939610000000    -1.99012    
O30      O      0.939530000000     0.944560000000     0.944140000000    -1.61108    
O31      O      0.934030000000     0.073900000000     0.932930000000    -1.23225    
O32      O      0.068100000000     0.925960000000     0.932350000000    -1.24684    
O33      O      0.017550000000     0.331310000000     0.413710000000    -0.822468   
O34      O      0.996460000000     0.674950000000     0.416460000000    -0.848292   
O35      O      0.918840000000     0.524340000000     0.329830000000    -0.966983   
O36      O      0.099500000000     0.480700000000     0.335340000000    -0.947347   
O37      O      0.178330000000     0.484120000000     0.420120000000    -0.816935   
O38      O      0.834210000000     0.522030000000     0.408950000000    -0.843646   
O39      O      0.989350000000     0.594650000000     0.333390000000    -0.968331   
O40      O      0.028800000000     0.412540000000     0.332100000000    -0.934638   
O41      O      0.077710000000     0.571320000000     0.427990000000    -1.70752    
O42      O      0.934270000000     0.435050000000     0.421710000000    -1.70407    
O43      O      0.991800000000     0.515230000000     0.485850000000    -1.93283    
O44      O      0.015790000000     0.489590000000     0.485720000000    -0.144667   
O45      O      0.005430000000     0.672310000000     0.595120000000    -0.725497   
O46      O      0.003770000000     0.332000000000     0.590680000000    -0.728407   
O47      O      0.836720000000     0.594310000000     0.481830000000    -0.780619   
O48      O      0.179250000000     0.588930000000     0.500300000000    -0.807745   
O49      O      0.170630000000     0.412800000000     0.496250000000    -0.794178   
O50      O      0.827920000000     0.414730000000     0.490080000000    -0.794869   
O51      O      0.907500000000     0.507880000000     0.672500000000    -0.588703   
O52      O      0.084740000000     0.494290000000     0.679530000000    -0.584457   
O53      O      0.829410000000     0.504910000000     0.586160000000    -0.741183   
O54      O      0.168810000000     0.490060000000     0.597940000000    -0.731031   
O55      O      0.921210000000     0.673620000000     0.486920000000    -0.788664   
O56      O      0.907420000000     0.331390000000     0.485590000000    -0.787848   
O57      O      0.086310000000     0.332300000000     0.490440000000    -0.774542   
O58      O      0.100470000000     0.672750000000     0.503310000000    -0.798805   
O59      O      0.994380000000     0.589540000000     0.676930000000    -0.58808    
O60      O      0.001100000000     0.412950000000     0.675220000000    -0.591458   
O61      O      0.065570000000     0.433960000000     0.564990000000    -1.56355    
O62      O      0.935150000000     0.570920000000     0.562270000000    -1.50909    
O63      O      0.922540000000     0.434120000000     0.572440000000    -1.20559    
O64      O      0.071980000000     0.575770000000     0.579270000000    -1.20729    
O65      O      0.673780000000     0.020310000000     0.416830000000    -1.07729    
O66      O      0.329360000000     0.012410000000     0.410000000000    -0.768021   
O67      O      0.504710000000     0.910490000000     0.332660000000    -1.03092    
O68      O      0.514680000000     0.090990000000     0.332660000000    -1.0882     
O69      O      0.512800000000     0.174480000000     0.413390000000    -1.0609     
O70      O      0.509780000000     0.828610000000     0.415910000000    -0.810227   
O71      O      0.413550000000     0.001240000000     0.329450000000    -1.02847    
O72      O      0.592480000000     0.018100000000     0.333700000000    -1.09206    
O73      O      0.438590000000     0.073530000000     0.431350000000    -2.12239    
O74      O      0.575880000000     0.940170000000     0.433160000000    -2.10775    
O75      O      0.432660000000     0.930590000000     0.428680000000    -0.871588   
O76      O      0.516790000000     0.017430000000     0.489910000000    -2.59089    
O77      O      0.331320000000     0.996240000000     0.588810000000    -0.706693   
O78      O      0.675510000000     0.009900000000     0.595980000000    -0.935531   
O79      O      0.418200000000     0.831760000000     0.505310000000    -0.754526   
O80      O      0.407670000000     0.174360000000     0.497820000000    -0.938372   
O81      O      0.588650000000     0.173940000000     0.484140000000    -1.08249    
O82      O      0.595760000000     0.830230000000     0.493490000000    -0.756372   
O83      O      0.502190000000     0.916810000000     0.674930000000    -0.579485   
O84      O      0.505220000000     0.094300000000     0.675920000000    -0.635217   
O85      O      0.500920000000     0.832870000000     0.592510000000    -0.700775   
O86      O      0.508350000000     0.176220000000     0.592710000000    -0.95933    
O87      O      0.332770000000     0.913240000000     0.502430000000    -0.743205   
O88      O      0.677070000000     0.913920000000     0.495000000000    -0.939989   
O89      O      0.672570000000     0.093270000000     0.489090000000    -1.05857    
O90      O      0.327090000000     0.090420000000     0.496280000000    -0.765395   
O91      O      0.414350000000     0.003270000000     0.672280000000    -0.589864   
O92      O      0.592050000000     0.011570000000     0.677730000000    -0.631304   
O93      O      0.572420000000     0.075330000000     0.565990000000    -2.00195    
O94      O      0.442950000000     0.942810000000     0.564250000000    -1.5971     
O95      O      0.572690000000     0.931830000000     0.576100000000    -1.26264    
O96      O      0.429080000000     0.071390000000     0.573800000000    -1.235      
O97      O      0.334350000000     0.408520000000     0.022810000000    -1.06613    
O98      O      0.680980000000     0.418160000000     0.999350000000    -0.771119   
O99      O      0.503290000000     0.333560000000     0.910760000000    -1.0769     
O100     O      0.500530000000     0.331090000000     0.089130000000    -1.12074    
O101     O      0.503090000000     0.409780000000     0.173440000000    -1.10111    
O102     O      0.495170000000     0.415100000000     0.827860000000    -0.789645   
O103     O      0.598830000000     0.335680000000     0.998580000000    -1.06255    
O104     O      0.419730000000     0.329790000000     0.019350000000    -1.08642    
O105     O      0.572420000000     0.433050000000     0.071090000000    -2.16107    
O106     O      0.431520000000     0.431150000000     0.940980000000    -2.12656    
O107     O      0.574060000000     0.431960000000     0.927970000000    -0.869473   
O108     O      0.489310000000     0.488930000000     0.017820000000    -2.6149     
O109     O      0.670640000000     0.596390000000     0.994400000000    -0.687121   
O110     O      0.327910000000     0.587360000000     0.018580000000    -0.96395    
O111     O      0.585470000000     0.510360000000     0.828870000000    -0.737423   
O112     O      0.602110000000     0.501940000000     0.171200000000    -0.974586   
O113     O      0.422530000000     0.479910000000     0.177360000000    -1.11189    
O114     O      0.408230000000     0.492820000000     0.832820000000    -0.783615   
O115     O      0.495490000000     0.675050000000     0.919400000000    -0.580318   
O116     O      0.495590000000     0.673630000000     0.097900000000    -0.628642   
O117     O      0.499050000000     0.594750000000     0.834250000000    -0.697859   
O118     O      0.498500000000     0.588650000000     0.176860000000    -1.00614    
O119     O      0.671650000000     0.511120000000     0.909590000000    -0.732328   
O120     O      0.327470000000     0.489430000000     0.916860000000    -0.931766   
O121     O      0.336510000000     0.479470000000     0.099480000000    -1.04156    
O122     O      0.680780000000     0.501100000000     0.085680000000    -0.768002   
O123     O      0.584960000000     0.676670000000     0.003870000000    -0.576373   
O124     O      0.407620000000     0.672790000000     0.016430000000    -0.635545   
O125     O      0.432900000000     0.561410000000     0.077780000000    -2.02164    
O126     O      0.559290000000     0.567190000000     0.941960000000    -1.59103    
O127     O      0.428770000000     0.573270000000     0.934660000000    -1.22914    
O128     O      0.575640000000     0.575360000000     0.070500000000    -1.21002    
S1       S      0.511520000000     0.200680000000     0.111820000000     0.0131399  
S2       S      0.516150000000     0.610600000000     0.305790000000     0.0116854  
S3       S      0.508330000000     0.804990000000     0.895110000000     0.0149302  
S4       S      0.446540000000     0.214690000000     0.883320000000     0.0109353  
S5       S      0.702190000000     0.391270000000     0.447720000000     0.00448463 
S6       S      0.897230000000     0.803370000000     0.465970000000     0.0152054  
S7       S      0.203700000000     0.111900000000     0.444250000000     0.0176146  
S8       S      0.309290000000     0.612870000000     0.483940000000     0.0113975  
S9       S      0.811300000000     0.516820000000     0.108210000000     0.00549081 
S10      S      0.400890000000     0.462360000000     0.308340000000     0.0130451  
S11      S      0.379760000000     0.437340000000     0.713920000000     0.0215361  
S12      S      0.699050000000     0.525860000000     0.607940000000     0.00818921 
S13      S      0.697600000000     0.896780000000     0.026430000000     0.0103621  
S14      S      0.628130000000     0.214520000000     0.952450000000     0.0147122  
S15      S      0.107060000000     0.696820000000     0.042110000000     0.0121295  
S16      S      0.307700000000     0.107930000000     0.053550000000     0.0151196  
S17      S      0.703240000000     0.023590000000     0.896960000000     0.0163003  
S18      S      0.296750000000     0.049200000000     0.883150000000     0.0126991  
S19      S      0.243560000000     0.120790000000     0.352030000000     0.00479222 
S20      S      0.891080000000     0.998460000000     0.306030000000     0.0118595  
S21      S      0.050580000000     0.116380000000     0.703110000000     0.0122077  
S22      S      0.969730000000     0.702970000000     0.894870000000     0.0152928  
S23      S      0.043370000000     0.886720000000     0.300320000000     0.00983003 
S24      S      0.024900000000     0.112780000000     0.303770000000     0.0146052  
Tb1      Tb     0.004060000000     0.003060000000     0.115160000000     6.73142    
Tb2      Tb     0.999990000000     0.892030000000     0.009210000000     4.33204    
Tb3      Tb     0.008150000000     0.115460000000     0.002430000000     6.178      
Tb4      Tb     0.893370000000     0.009600000000     0.009680000000     4.47033    
Tb5      Tb     0.115600000000     0.996210000000     0.001520000000     6.48502    
Tb6      Tb     0.005600000000     0.003990000000     0.892760000000     3.13868    
Tb7      Tb     0.007430000000     0.503260000000     0.387530000000     5.46167    
Tb8      Tb     0.009910000000     0.613510000000     0.502580000000     4.38554    
Tb9      Tb     0.995910000000     0.391920000000     0.500020000000     4.45779    
Tb10     Tb     0.891760000000     0.501680000000     0.496890000000     4.39592    
Tb11     Tb     0.113860000000     0.504040000000     0.505180000000     4.52264    
Tb12     Tb     0.998570000000     0.501830000000     0.613990000000     3.02241    
Tb13     Tb     0.502570000000     0.001410000000     0.391620000000     6.4718     
Tb14     Tb     0.391810000000     0.004090000000     0.498400000000     4.30375    
Tb15     Tb     0.615370000000     0.003300000000     0.505170000000     6.30912    
Tb16     Tb     0.506860000000     0.892710000000     0.500580000000     4.3576     
Tb17     Tb     0.500040000000     0.115520000000     0.503230000000     6.40303    
Tb18     Tb     0.505470000000     0.006950000000     0.613890000000     3.16216    
Tb19     Tb     0.507280000000     0.392070000000     0.000620000000     6.63113    
Tb20     Tb     0.614250000000     0.502800000000     0.001000000000     4.2297     
Tb21     Tb     0.390100000000     0.499690000000     0.006430000000     6.32077    
Tb22     Tb     0.497300000000     0.501330000000     0.892420000000     4.34924    
Tb23     Tb     0.508530000000     0.501190000000     0.115370000000     6.68421    
Tb24     Tb     0.496400000000     0.613140000000     0.008670000000     3.13821    


