data_structure

_audit_creation_method RASPA-1.0
_audit_creation_date 2023-5-19
_audit_author_name 'Poobodin Mano'

_cell_length_a    20.2218
_cell_length_b    20.2332
_cell_length_c    20.2246
_cell_angle_alpha 90
_cell_angle_beta  90
_cell_angle_gamma 90
_cell_volume      8274.93

_symmetry_cell_setting          triclinic
_symmetry_space_group_name_Hall 'P 1'
_symmetry_space_group_name_H-M  'P 1'
_symmetry_Int_Tables_number     1

_symmetry_equiv_pos_as_xyz 'x,y,z'

loop_
_atom_site_label
_atom_site_type_symbol
_atom_site_fract_x
_atom_site_fract_y
_atom_site_fract_z
_atom_site_charge
C1       C      0.029950000000     0.162960000000     0.161190000000     0.752306   
C2       C      0.011880000000     0.855240000000     0.162490000000     0.689124   
C3       C      0.853620000000     0.019230000000     0.163840000000     0.703333   
C4       C      0.160890000000     0.027090000000     0.160830000000     0.770938   
C5       C      0.002460000000     0.857460000000     0.857200000000     0.552749   
C6       C      0.020540000000     0.162340000000     0.854670000000     0.667244   
C7       C      0.855150000000     0.858290000000     0.005800000000     0.602844   
C8       C      0.160340000000     0.854200000000     0.022150000000     0.706854   
C9       C      0.163380000000     0.160690000000     0.028690000000     0.714128   
C10      C      0.856780000000     0.165090000000     0.019890000000     0.732762   
C11      C      0.856440000000     0.008730000000     0.859060000000     0.59314    
C12      C      0.162560000000     0.013410000000     0.853380000000     0.65186    
C13      C      0.030460000000     0.356360000000     0.357540000000     0.721823   
C14      C      0.013120000000     0.663920000000     0.356420000000     0.71442    
C15      C      0.855470000000     0.502410000000     0.355190000000     0.691162   
C16      C      0.163210000000     0.491480000000     0.358680000000     0.724733   
C17      C      0.001710000000     0.660950000000     0.662430000000     0.576375   
C18      C      0.018880000000     0.356330000000     0.664190000000     0.689039   
C19      C      0.854670000000     0.659130000000     0.508910000000     0.611664   
C20      C      0.160670000000     0.666520000000     0.503150000000     0.718107   
C21      C      0.162070000000     0.359240000000     0.490810000000     0.757988   
C22      C      0.854840000000     0.354180000000     0.495120000000     0.689044   
C23      C      0.855320000000     0.512640000000     0.660020000000     0.560322   
C24      C      0.160750000000     0.499370000000     0.665150000000     0.66578    
C25      C      0.660880000000     0.027040000000     0.358420000000     0.739903   
C26      C      0.353230000000     0.018580000000     0.355380000000     0.677724   
C27      C      0.509210000000     0.855480000000     0.356130000000     0.691344   
C28      C      0.521590000000     0.163380000000     0.357270000000     0.73725    
C29      C      0.356320000000     0.007720000000     0.659720000000     0.597171   
C30      C      0.662160000000     0.014900000000     0.665430000000     0.645788   
C31      C      0.355250000000     0.859510000000     0.510060000000     0.591126   
C32      C      0.354650000000     0.164730000000     0.496190000000     0.694421   
C33      C      0.661800000000     0.159920000000     0.490230000000     0.756008   
C34      C      0.661030000000     0.853330000000     0.500930000000     0.688204   
C35      C      0.504140000000     0.857370000000     0.661210000000     0.5566     
C36      C      0.516420000000     0.162800000000     0.664150000000     0.665741   
C37      C      0.357130000000     0.356840000000     0.030550000000     0.753233   
C38      C      0.665270000000     0.358730000000     0.014280000000     0.691354   
C39      C      0.507700000000     0.356150000000     0.855430000000     0.720354   
C40      C      0.500620000000     0.358370000000     0.163820000000     0.773772   
C41      C      0.659380000000     0.663780000000     0.003110000000     0.556387   
C42      C      0.354500000000     0.663480000000     0.020690000000     0.685847   
C43      C      0.660640000000     0.514240000000     0.855600000000     0.604688   
C44      C      0.665270000000     0.501370000000     0.160420000000     0.741797   
C45      C      0.358270000000     0.489730000000     0.163770000000     0.752081   
C46      C      0.354930000000     0.496130000000     0.856120000000     0.731617   
C47      C      0.508200000000     0.661340000000     0.855980000000     0.581263   
C48      C      0.501370000000     0.664590000000     0.162530000000     0.702635   
C49      C      0.514710000000     0.195630000000     0.243650000000     0.037153   
C50      C      0.516620000000     0.277250000000     0.326440000000    -0.0532498  
C51      C      0.507040000000     0.244780000000     0.195380000000     0.0597519  
C52      C      0.508830000000     0.326540000000     0.278350000000     0.384914   
C53      C      0.504910000000     0.825570000000     0.242810000000     0.0491987  
C54      C      0.505160000000     0.742860000000     0.325110000000    -0.0638322  
C55      C      0.501950000000     0.777220000000     0.194160000000     0.0520266  
C56      C      0.501920000000     0.694430000000     0.276720000000     0.39462    
C57      C      0.504940000000     0.824570000000     0.775090000000     0.0330545  
C58      C      0.504480000000     0.743070000000     0.692290000000    -0.0581154  
C59      C      0.506560000000     0.775130000000     0.823780000000     0.0547434  
C60      C      0.506400000000     0.693420000000     0.740870000000     0.380056   
C61      C      0.514400000000     0.275920000000     0.694470000000     0.0490259  
C62      C      0.515890000000     0.193570000000     0.777090000000    -0.070341   
C63      C      0.511000000000     0.324420000000     0.742870000000     0.0592563  
C64      C      0.512620000000     0.241920000000     0.825680000000     0.393231   
C65      C      0.741700000000     0.322300000000     0.486100000000     0.0300325  
C66      C      0.824660000000     0.240630000000     0.487460000000    -0.0563193  
C67      C      0.693270000000     0.273120000000     0.484070000000     0.068444   
C68      C      0.776350000000     0.191270000000     0.485280000000     0.383941   
C69      C      0.774350000000     0.821340000000     0.503770000000     0.0479547  
C70      C      0.691530000000     0.739550000000     0.501670000000    -0.0555182  
C71      C      0.822810000000     0.772320000000     0.506850000000     0.0501916  
C72      C      0.739910000000     0.690280000000     0.504880000000     0.378076   
C73      C      0.241650000000     0.196790000000     0.486740000000     0.0317124  
C74      C      0.324740000000     0.278330000000     0.488840000000    -0.0539945  
C75      C      0.193360000000     0.246040000000     0.484550000000     0.0704824  
C76      C      0.276580000000     0.327770000000     0.486520000000     0.387393   
C77      C      0.322990000000     0.746270000000     0.509250000000     0.0292922  
C78      C      0.241390000000     0.829300000000     0.506440000000    -0.0636794  
C79      C      0.273860000000     0.697970000000     0.506500000000     0.0760091  
C80      C      0.192020000000     0.781060000000     0.503520000000     0.387712   
C81      C      0.743030000000     0.497930000000     0.322620000000     0.0370348  
C82      C      0.826900000000     0.499220000000     0.241500000000    -0.0490951  
C83      C      0.695360000000     0.497490000000     0.273310000000     0.0778674  
C84      C      0.779270000000     0.498500000000     0.191910000000     0.38732    
C85      C      0.195430000000     0.483330000000     0.245000000000     0.0451372  
C86      C      0.277250000000     0.484060000000     0.327550000000    -0.0519666  
C87      C      0.244720000000     0.482770000000     0.196150000000     0.064436   
C88      C      0.326750000000     0.483400000000     0.278790000000     0.389118   
C89      C      0.192330000000     0.495450000000     0.778190000000     0.0311095  
C90      C      0.273710000000     0.490410000000     0.694770000000    -0.0510282  
C91      C      0.241610000000     0.494330000000     0.826180000000     0.0825361  
C92      C      0.323060000000     0.489050000000     0.742530000000     0.388528   
C93      C      0.741080000000     0.515290000000     0.692010000000     0.0370119  
C94      C      0.823750000000     0.516840000000     0.773730000000    -0.0619709  
C95      C      0.692280000000     0.515750000000     0.741490000000     0.0602329  
C96      C      0.775290000000     0.517520000000     0.823210000000     0.388597   
C97      C      0.691610000000     0.777860000000     0.003150000000     0.0296961  
C98      C      0.773230000000     0.695240000000     0.998730000000    -0.0572397  
C99      C      0.741080000000     0.826610000000     0.003880000000     0.0591355  
C100     C      0.822760000000     0.743730000000     0.999490000000     0.387536   
C101     C      0.695700000000     0.245590000000     0.018660000000     0.0471176  
C102     C      0.778250000000     0.327970000000     0.020530000000    -0.0613748  
C103     C      0.744140000000     0.196970000000     0.020860000000     0.0617759  
C104     C      0.826900000000     0.279450000000     0.022650000000     0.400993   
C105     C      0.191750000000     0.741080000000     0.025810000000     0.0357811  
C106     C      0.273240000000     0.824450000000     0.028920000000    -0.048672   
C107     C      0.241100000000     0.693120000000     0.025290000000     0.0712644  
C108     C      0.322580000000     0.776830000000     0.028580000000     0.372898   
C109     C      0.277450000000     0.192980000000     0.035110000000     0.0363242  
C110     C      0.194500000000     0.274270000000     0.038500000000    -0.0588911  
C111     C      0.326080000000     0.242660000000     0.035740000000     0.0606009  
C112     C      0.242840000000     0.323970000000     0.039290000000     0.386226   
C113     C      0.775760000000     0.013800000000     0.696860000000     0.0469925  
C114     C      0.693180000000     0.012400000000     0.778960000000    -0.0632626  
C115     C      0.824450000000     0.011370000000     0.745790000000     0.0485577  
C116     C      0.741690000000     0.009790000000     0.828050000000     0.380171   
C117     C      0.276030000000     0.012030000000     0.821900000000     0.0488208  
C118     C      0.193310000000     0.010590000000     0.739890000000    -0.062869   
C119     C      0.324580000000     0.009730000000     0.772930000000     0.0476435  
C120     C      0.241700000000     0.008110000000     0.690760000000     0.380276   
C121     C      0.322800000000     0.024400000000     0.241650000000     0.0343813  
C122     C      0.240470000000     0.029630000000     0.323890000000    -0.0684954  
C123     C      0.274160000000     0.027920000000     0.192760000000     0.0640192  
C124     C      0.191730000000     0.033070000000     0.275220000000     0.388065   
C125     C      0.692020000000     0.031110000000     0.244800000000     0.0436008  
C126     C      0.774380000000     0.029660000000     0.327120000000    -0.0553794  
C127     C      0.740750000000     0.028100000000     0.195980000000     0.0501263  
C128     C      0.823280000000     0.026610000000     0.278450000000     0.383774   
C129     C      0.023590000000     0.194070000000     0.741850000000     0.0280768  
C130     C      0.026700000000     0.275430000000     0.825410000000    -0.047845   
C131     C      0.023170000000     0.243290000000     0.694000000000     0.074521   
C132     C      0.026270000000     0.324780000000     0.777750000000     0.38109    
C133     C      0.000240000000     0.824590000000     0.743140000000     0.0272677  
C134     C      0.997900000000     0.743240000000     0.825980000000    -0.0558733  
C135     C      0.999830000000     0.775020000000     0.694380000000     0.0644153  
C136     C      0.997670000000     0.693510000000     0.777380000000     0.379503   
C137     C      0.013160000000     0.825090000000     0.275900000000     0.047138   
C138     C      0.015240000000     0.742450000000     0.193620000000    -0.0637827  
C139     C      0.013690000000     0.776620000000     0.324610000000     0.0607864  
C140     C      0.015680000000     0.693870000000     0.242110000000     0.393519   
C141     C      0.036840000000     0.242680000000     0.324810000000     0.044522   
C142     C      0.039230000000     0.325730000000     0.243570000000    -0.052746   
C143     C      0.036550000000     0.194190000000     0.275130000000     0.0628452  
C144     C      0.039080000000     0.277390000000     0.193740000000     0.386055   
F1       F      0.506790000000     0.390230000000     0.299560000000    -0.41358    
F2       F      0.499950000000     0.630490000000     0.297350000000    -0.425545   
F3       F      0.507000000000     0.629640000000     0.719820000000    -0.425945   
F4       F      0.511800000000     0.221360000000     0.889680000000    -0.456566   
F5       F      0.797400000000     0.127480000000     0.484260000000    -0.448019   
F6       F      0.718940000000     0.626460000000     0.505310000000    -0.439457   
F7       F      0.297730000000     0.391530000000     0.486030000000    -0.439633   
F8       F      0.128240000000     0.802030000000     0.500570000000    -0.442148   
F9       F      0.800700000000     0.498450000000     0.128200000000    -0.423742   
F10      F      0.390640000000     0.483190000000     0.299580000000    -0.399474   
F11      F      0.386670000000     0.484760000000     0.721160000000    -0.427054   
F12      F      0.796570000000     0.519250000000     0.886930000000    -0.419709   
F13      F      0.886500000000     0.722550000000     0.996830000000    -0.426587   
F14      F      0.890890000000     0.299880000000     0.025550000000    -0.419524   
F15      F      0.386230000000     0.798320000000     0.031440000000    -0.450164   
F16      F      0.221460000000     0.387590000000     0.042020000000    -0.441449   
F17      F      0.720830000000     0.007700000000     0.891900000000    -0.446368   
F18      F      0.220760000000     0.005950000000     0.626930000000    -0.442566   
F19      F      0.127950000000     0.038320000000     0.295770000000    -0.44701    
F20      F      0.887260000000     0.025140000000     0.299010000000    -0.444072   
F21      F      0.028920000000     0.388440000000     0.799130000000    -0.427463   
F22      F      0.995610000000     0.629800000000     0.798570000000    -0.423414   
F23      F      0.017560000000     0.629910000000     0.221570000000    -0.444289   
F24      F      0.040530000000     0.298670000000     0.130040000000    -0.424096   
H1       H      0.961280000000     0.963370000000     0.059200000000    -1.27002    
H2       H      0.049300000000     0.049070000000     0.048840000000    -1.14441    
H3       H      0.950790000000     0.121930000000     0.950420000000    -0.559342   
H4       H      0.119860000000     0.948610000000     0.950800000000    -0.563646   
H5       H      0.961990000000     0.555440000000     0.459890000000    -1.24296    
H6       H      0.049240000000     0.469740000000     0.470410000000    -1.13058    
H7       H      0.949090000000     0.396540000000     0.567800000000    -0.546269   
H8       H      0.119260000000     0.569710000000     0.569780000000    -0.568073   
H9       H      0.461240000000     0.963480000000     0.459710000000    -1.26312    
H10      H      0.548600000000     0.049300000000     0.470030000000    -1.11715    
H11      H      0.619330000000     0.949060000000     0.568590000000    -0.556279   
H12      H      0.448970000000     0.122000000000     0.567920000000    -0.558687   
H13      H      0.555890000000     0.460900000000     0.962350000000    -1.2669     
H14      H      0.469710000000     0.470190000000     0.049770000000    -1.17089    
H15      H      0.396000000000     0.567660000000     0.950570000000    -0.556092   
H16      H      0.569110000000     0.569630000000     0.119850000000    -0.611762   
H17      H      0.503810000000     0.228900000000     0.144290000000     0.0310653  
H18      H      0.516280000000     0.144650000000     0.227250000000     0.0323986  
H19      H      0.519800000000     0.292830000000     0.377640000000     0.0945607  
H20      H      0.500920000000     0.793470000000     0.143080000000     0.0548469  
H21      H      0.505810000000     0.876780000000     0.227030000000     0.033304   
H22      H      0.506010000000     0.726800000000     0.376260000000     0.10153    
H23      H      0.507260000000     0.791020000000     0.874950000000     0.0500798  
H24      H      0.504580000000     0.875570000000     0.791500000000     0.0471975  
H25      H      0.503850000000     0.727600000000     0.640970000000     0.100216   
H26      H      0.509310000000     0.375440000000     0.726550000000     0.0619727  
H27      H      0.514780000000     0.291810000000     0.643270000000     0.0432143  
H28      H      0.517580000000     0.142410000000     0.793010000000     0.0962441  
H29      H      0.642070000000     0.288970000000     0.482890000000     0.0371288  
H30      H      0.725380000000     0.373340000000     0.486180000000     0.0497845  
H31      H      0.876000000000     0.225210000000     0.488460000000     0.0891742  
H32      H      0.873930000000     0.788370000000     0.508680000000     0.0442356  
H33      H      0.790660000000     0.872380000000     0.503670000000     0.041835   
H34      H      0.640220000000     0.724080000000     0.499920000000     0.0991903  
H35      H      0.142150000000     0.230270000000     0.482920000000     0.0361402  
H36      H      0.225240000000     0.145770000000     0.486540000000     0.0558668  
H37      H      0.376110000000     0.293650000000     0.490210000000     0.0956639  
H38      H      0.289710000000     0.646780000000     0.506810000000     0.0425596  
H39      H      0.373970000000     0.729800000000     0.511280000000     0.0538423  
H40      H      0.225960000000     0.880620000000     0.506070000000     0.113311   
H41      H      0.644040000000     0.496690000000     0.288810000000     0.0639427  
H42      H      0.726160000000     0.497520000000     0.373510000000     0.0628372  
H43      H      0.878400000000     0.499760000000     0.226550000000     0.109215   
H44      H      0.228680000000     0.482520000000     0.145020000000     0.0683708  
H45      H      0.144330000000     0.483330000000     0.228790000000     0.0586842  
H46      H      0.292850000000     0.484670000000     0.378820000000     0.123023   
H47      H      0.226150000000     0.496090000000     0.877480000000     0.049037   
H48      H      0.141370000000     0.497950000000     0.794660000000     0.0830098  
H49      H      0.288930000000     0.488370000000     0.643390000000     0.10717    
H50      H      0.641050000000     0.515180000000     0.725730000000     0.0603936  
H51      H      0.724900000000     0.514410000000     0.640920000000     0.0634245  
H52      H      0.875020000000     0.517550000000     0.789420000000     0.133819   
H53      H      0.725310000000     0.877780000000     0.006000000000     0.051079   
H54      H      0.640550000000     0.794080000000     0.004750000000     0.048963   
H55      H      0.788830000000     0.644020000000     0.996490000000     0.133143   
H56      H      0.727840000000     0.145910000000     0.020770000000     0.0476169  
H57      H      0.644520000000     0.229660000000     0.017250000000     0.0479189  
H58      H      0.794130000000     0.379160000000     0.020890000000     0.134956   
H59      H      0.225710000000     0.641820000000     0.023710000000     0.0413411  
H60      H      0.140710000000     0.724690000000     0.024580000000     0.0543994  
H61      H      0.288560000000     0.875790000000     0.030830000000     0.0842372  
H62      H      0.377380000000     0.227160000000     0.034370000000     0.0380323  
H63      H      0.293810000000     0.141990000000     0.033330000000     0.0370262  
H64      H      0.143180000000     0.289700000000     0.039600000000     0.128533   
H65      H      0.875580000000     0.011170000000     0.729690000000     0.0409515  
H66      H      0.791840000000     0.015140000000     0.645740000000     0.0466155  
H67      H      0.641920000000     0.012530000000     0.794670000000     0.0950268  
H68      H      0.375730000000     0.009620000000     0.788990000000     0.0412043  
H69      H      0.292180000000     0.013360000000     0.872990000000     0.0362664  
H70      H      0.142010000000     0.010650000000     0.724250000000     0.094775   
H71      H      0.290320000000     0.026790000000     0.141660000000     0.0301051  
H72      H      0.373930000000     0.021180000000     0.225830000000     0.0326481  
H73      H      0.224570000000     0.031020000000     0.375070000000     0.100221   
H74      H      0.724520000000     0.027780000000     0.144890000000     0.0381419  
H75      H      0.640850000000     0.032640000000     0.228860000000     0.0325438  
H76      H      0.790260000000     0.030010000000     0.378320000000     0.115907   
H77      H      0.021690000000     0.227810000000     0.642700000000     0.031717   
H78      H      0.022490000000     0.143110000000     0.725280000000     0.0458612  
H79      H      0.028440000000     0.290600000000     0.876810000000     0.111088   
H80      H      0.000750000000     0.790770000000     0.643150000000     0.0490176  
H81      H      0.001310000000     0.875580000000     0.726720000000     0.0494547  
H82      H      0.996890000000     0.727800000000     0.877310000000     0.121031   
H83      H      0.013000000000     0.792900000000     0.375690000000     0.0573538  
H84      H      0.012180000000     0.876290000000     0.291690000000     0.0601664  
H85      H      0.016130000000     0.726450000000     0.142450000000     0.111364   
H86      H      0.035190000000     0.142960000000     0.290720000000     0.0736277  
H87      H      0.035710000000     0.226180000000     0.375790000000     0.0450604  
H88      H      0.040330000000     0.377080000000     0.228300000000     0.100635   
N1       N      0.519090000000     0.211760000000     0.309330000000    -0.223362   
N2       N      0.504200000000     0.310430000000     0.212360000000    -0.289653   
N3       N      0.506870000000     0.808220000000     0.308160000000    -0.215645   
N4       N      0.501130000000     0.711660000000     0.210970000000    -0.274456   
N5       N      0.504040000000     0.808710000000     0.709180000000    -0.18313    
N6       N      0.507370000000     0.709320000000     0.807100000000    -0.247543   
N7       N      0.516250000000     0.210580000000     0.711690000000    -0.206668   
N8       N      0.510020000000     0.307600000000     0.808470000000    -0.281973   
N9       N      0.807350000000     0.306020000000     0.489390000000    -0.209388   
N10      N      0.710270000000     0.207490000000     0.485510000000    -0.29156    
N11      N      0.708690000000     0.805000000000     0.501440000000    -0.210902   
N12      N      0.805950000000     0.706660000000     0.507390000000    -0.258173   
N13      N      0.307270000000     0.212960000000     0.490480000000    -0.209142   
N14      N      0.210490000000     0.311650000000     0.486270000000    -0.291699   
N15      N      0.306820000000     0.811980000000     0.509140000000    -0.189545   
N16      N      0.208270000000     0.715050000000     0.503840000000    -0.279774   
N17      N      0.808690000000     0.499760000000     0.306650000000    -0.210827   
N18      N      0.713260000000     0.498760000000     0.207970000000    -0.282835   
N19      N      0.211570000000     0.485610000000     0.310810000000    -0.217496   
N20      N      0.310590000000     0.484430000000     0.212630000000    -0.282829   
N21      N      0.208600000000     0.494890000000     0.712570000000    -0.200574   
N22      N      0.307020000000     0.492610000000     0.808450000000    -0.28248    
N23      N      0.806940000000     0.515090000000     0.708110000000    -0.178958   
N24      N      0.709070000000     0.516160000000     0.807300000000    -0.255346   
N25      N      0.707630000000     0.712020000000     0.001320000000    -0.180323   
N26      N      0.806880000000     0.809870000000     0.002860000000    -0.256586   
N27      N      0.712860000000     0.310990000000     0.017700000000    -0.209198   
N28      N      0.809770000000     0.213700000000     0.021690000000    -0.281636   
N29      N      0.208050000000     0.806660000000     0.026080000000    -0.214792   
N30      N      0.306510000000     0.710950000000     0.025140000000    -0.274094   
N31      N      0.211510000000     0.208790000000     0.034810000000    -0.215636   
N32      N      0.309060000000     0.308400000000     0.036070000000    -0.288548   
N33      N      0.710120000000     0.014220000000     0.713450000000    -0.202066   
N34      N      0.807720000000     0.009510000000     0.811520000000    -0.253339   
N35      N      0.210400000000     0.012460000000     0.805350000000    -0.204781   
N36      N      0.307710000000     0.008040000000     0.707260000000    -0.254373   
N37      N      0.305820000000     0.024000000000     0.307190000000    -0.209725   
N38      N      0.208430000000     0.030480000000     0.209330000000    -0.295375   
N39      N      0.708770000000     0.030370000000     0.310420000000    -0.224639   
N40      N      0.806430000000     0.024550000000     0.212560000000    -0.277286   
N41      N      0.024000000000     0.210320000000     0.807460000000    -0.205155   
N42      N      0.023050000000     0.308630000000     0.711860000000    -0.276082   
N43      N      0.999940000000     0.808840000000     0.809130000000    -0.178037   
N44      N      0.999410000000     0.709220000000     0.711080000000    -0.247093   
N45      N      0.013460000000     0.807860000000     0.210500000000    -0.210694   
N46      N      0.014340000000     0.711000000000     0.307870000000    -0.281257   
N47      N      0.036380000000     0.308600000000     0.309100000000    -0.220376   
N48      N      0.035990000000     0.211200000000     0.209380000000    -0.282364   
O1       O      0.027130000000     0.181370000000     0.097660000000    -1.02157    
O2       O      0.011930000000     0.835640000000     0.099090000000    -0.782734   
O3       O      0.917620000000     0.015090000000     0.181730000000    -0.990807   
O4       O      0.097570000000     0.023480000000     0.179220000000    -1.07056    
O5       O      0.180270000000     0.024010000000     0.097590000000    -1.08627    
O6       O      0.833900000000     0.018240000000     0.100310000000    -0.781558   
O7       O      0.009720000000     0.919080000000     0.181190000000    -1.02241    
O8       O      0.024550000000     0.099610000000     0.180040000000    -1.05094    
O9       O      0.079670000000     0.946080000000     0.080240000000    -2.11999    
O10      O      0.946230000000     0.082390000000     0.080270000000    -2.14082    
O11      O      0.936590000000     0.939260000000     0.084770000000    -0.869404   
O12      O      0.023530000000     0.023920000000     0.023040000000    -2.61392    
O13      O      0.002820000000     0.838830000000     0.921640000000    -0.67784    
O14      O      0.018980000000     0.181160000000     0.918460000000    -0.954224   
O15      O      0.836090000000     0.922610000000     0.008180000000    -0.710057   
O16      O      0.179880000000     0.917630000000     0.018510000000    -0.983094   
O17      O      0.181940000000     0.097180000000     0.023860000000    -1.05785    
O18      O      0.836900000000     0.101720000000     0.019480000000    -0.76228    
O19      O      0.920300000000     0.010640000000     0.839060000000    -0.57754    
O20      O      0.098860000000     0.012630000000     0.834600000000    -0.615333   
O21      O      0.838010000000     0.008290000000     0.923250000000    -0.675957   
O22      O      0.181520000000     0.012810000000     0.917320000000    -0.94649    
O23      O      0.919200000000     0.839030000000     0.007200000000    -0.691989   
O24      O      0.920690000000     0.182930000000     0.016280000000    -0.934019   
O25      O      0.099970000000     0.179840000000     0.025550000000    -1.04919    
O26      O      0.096610000000     0.835600000000     0.020280000000    -0.763413   
O27      O      0.006070000000     0.921380000000     0.837650000000    -0.565678   
O28      O      0.016960000000     0.099060000000     0.835250000000    -0.624165   
O29      O      0.080510000000     0.079410000000     0.945900000000    -2.03897    
O30      O      0.947520000000     0.950110000000     0.948400000000    -1.59368    
O31      O      0.937370000000     0.079310000000     0.938000000000    -1.22074    
O32      O      0.077100000000     0.936280000000     0.937780000000    -1.22641    
O33      O      0.026470000000     0.337250000000     0.420870000000    -1.05112    
O34      O      0.012920000000     0.683740000000     0.419840000000    -0.774039   
O35      O      0.919450000000     0.505820000000     0.337130000000    -1.01677    
O36      O      0.099870000000     0.494990000000     0.339530000000    -1.06141    
O37      O      0.181600000000     0.495720000000     0.422230000000    -1.04742    
O38      O      0.835190000000     0.502140000000     0.418370000000    -0.782583   
O39      O      0.011240000000     0.600040000000     0.338250000000    -0.999759   
O40      O      0.026160000000     0.419850000000     0.339030000000    -1.06158    
O41      O      0.080480000000     0.573770000000     0.439140000000    -2.12526    
O42      O      0.946480000000     0.437010000000     0.437800000000    -2.1256     
O43      O      0.937560000000     0.579600000000     0.434060000000    -0.867671   
O44      O      0.023240000000     0.494930000000     0.495950000000    -2.60488    
O45      O      0.002020000000     0.680030000000     0.598060000000    -0.67984    
O46      O      0.017270000000     0.337290000000     0.600400000000    -0.964468   
O47      O      0.836270000000     0.594910000000     0.508120000000    -0.70049    
O48      O      0.180230000000     0.602850000000     0.505830000000    -0.964645   
O49      O      0.180300000000     0.422690000000     0.494800000000    -1.04689    
O50      O      0.835600000000     0.417730000000     0.496910000000    -0.760909   
O51      O      0.919190000000     0.509940000000     0.679810000000    -0.551469   
O52      O      0.097260000000     0.502710000000     0.684190000000    -0.598165   
O53      O      0.836710000000     0.511730000000     0.595660000000    -0.689492   
O54      O      0.179890000000     0.501510000000     0.601460000000    -0.957049   
O55      O      0.918550000000     0.679360000000     0.509210000000    -0.725363   
O56      O      0.918740000000     0.335690000000     0.499780000000    -0.953905   
O57      O      0.098910000000     0.339510000000     0.494120000000    -1.07817    
O58      O      0.096680000000     0.684220000000     0.502220000000    -0.722085   
O59      O      0.005420000000     0.596890000000     0.681250000000    -0.530045   
O60      O      0.014920000000     0.419630000000     0.683120000000    -0.589222   
O61      O      0.079140000000     0.439480000000     0.572600000000    -2.02736    
O62      O      0.946910000000     0.569020000000     0.570220000000    -1.59985    
O63      O      0.936020000000     0.439190000000     0.580580000000    -1.24372    
O64      O      0.076350000000     0.582330000000     0.582030000000    -1.22965    
O65      O      0.679900000000     0.023340000000     0.421680000000    -1.05859    
O66      O      0.333780000000     0.018220000000     0.418920000000    -0.78094    
O67      O      0.507930000000     0.919290000000     0.337460000000    -1.04171    
O68      O      0.519410000000     0.099890000000     0.338440000000    -1.07332    
O69      O      0.521810000000     0.181910000000     0.420860000000    -1.06732    
O70      O      0.510910000000     0.835810000000     0.419490000000    -0.794924   
O71      O      0.417100000000     0.013940000000     0.336880000000    -1.0158     
O72      O      0.597580000000     0.024180000000     0.339460000000    -1.10643    
O73      O      0.445780000000     0.082040000000     0.438470000000    -2.14786    
O74      O      0.579720000000     0.945760000000     0.438310000000    -2.1071     
O75      O      0.436540000000     0.939380000000     0.434120000000    -0.872146   
O76      O      0.522760000000     0.024070000000     0.495710000000    -2.60796    
O77      O      0.337880000000     0.007800000000     0.595550000000    -0.685535   
O78      O      0.681020000000     0.014100000000     0.601470000000    -0.927083   
O79      O      0.419090000000     0.839440000000     0.510090000000    -0.732969   
O80      O      0.418500000000     0.183200000000     0.501080000000    -0.955456   
O81      O      0.598580000000     0.179530000000     0.493300000000    -1.09379    
O82      O      0.597050000000     0.835220000000     0.500270000000    -0.757568   
O83      O      0.506950000000     0.921340000000     0.680800000000    -0.562903   
O84      O      0.514680000000     0.099360000000     0.683310000000    -0.62317    
O85      O      0.503640000000     0.838730000000     0.596820000000    -0.69311    
O86      O      0.515430000000     0.181800000000     0.600400000000    -0.970798   
O87      O      0.336340000000     0.923660000000     0.508880000000    -0.726754   
O88      O      0.680440000000     0.916970000000     0.503800000000    -0.950583   
O89      O      0.680080000000     0.096540000000     0.494750000000    -1.04108    
O90      O      0.335380000000     0.101170000000     0.497610000000    -0.754021   
O91      O      0.420110000000     0.009680000000     0.679740000000    -0.581213   
O92      O      0.598420000000     0.013950000000     0.684200000000    -0.610397   
O93      O      0.579580000000     0.079850000000     0.572720000000    -2.01959    
O94      O      0.447320000000     0.949860000000     0.570310000000    -1.59656    
O95      O      0.576530000000     0.936570000000     0.581200000000    -1.23268    
O96      O      0.436280000000     0.079310000000     0.580790000000    -1.23819    
O97      O      0.338130000000     0.420130000000     0.027330000000    -1.03839    
O98      O      0.684340000000     0.422320000000     0.013620000000    -0.758174   
O99      O      0.509440000000     0.338250000000     0.919390000000    -1.01443    
O100     O      0.501470000000     0.339410000000     0.100290000000    -1.09204    
O101     O      0.500230000000     0.421990000000     0.181870000000    -1.05789    
O102     O      0.505660000000     0.419420000000     0.835360000000    -0.785836   
O103     O      0.601620000000     0.339460000000     0.011600000000    -1.0249     
O104     O      0.420750000000     0.338540000000     0.025710000000    -1.08297    
O105     O      0.573850000000     0.440430000000     0.080230000000    -2.17473    
O106     O      0.437470000000     0.438110000000     0.946810000000    -2.12623    
O107     O      0.580480000000     0.435580000000     0.937850000000    -0.870219   
O108     O      0.494690000000     0.496090000000     0.023880000000    -2.63568    
O109     O      0.678710000000     0.599640000000     0.003150000000    -0.673922   
O110     O      0.335930000000     0.599560000000     0.018680000000    -0.954918   
O111     O      0.596310000000     0.512300000000     0.836590000000    -0.714319   
O112     O      0.601760000000     0.504560000000     0.180060000000    -0.984061   
O113     O      0.422000000000     0.493750000000     0.181540000000    -1.05176    
O114     O      0.418440000000     0.497290000000     0.837180000000    -0.736674   
O115     O      0.506250000000     0.681060000000     0.920010000000    -0.555852   
O116     O      0.502860000000     0.684080000000     0.099070000000    -0.607966   
O117     O      0.509220000000     0.596910000000     0.837780000000    -0.65877    
O118     O      0.502900000000     0.600840000000     0.180850000000    -0.957605   
O119     O      0.679890000000     0.513030000000     0.919650000000    -0.686997   
O120     O      0.336050000000     0.500390000000     0.919860000000    -0.966216   
O121     O      0.338590000000     0.493330000000     0.100460000000    -1.05184    
O122     O      0.683370000000     0.502320000000     0.096680000000    -0.731543   
O123     O      0.595290000000     0.682780000000     0.006650000000    -0.559351   
O124     O      0.417720000000     0.682840000000     0.016920000000    -0.582992   
O125     O      0.438550000000     0.572630000000     0.080290000000    -2.06044    
O126     O      0.568340000000     0.571930000000     0.947750000000    -1.60388    
O127     O      0.438530000000     0.580640000000     0.937270000000    -1.22462    
O128     O      0.581490000000     0.582750000000     0.077190000000    -1.21945    
Tb1      Tb     0.007880000000     0.009410000000     0.121270000000     6.55728    
Tb2      Tb     0.009600000000     0.899160000000     0.013210000000     4.33455    
Tb3      Tb     0.009720000000     0.122020000000     0.008570000000     6.52105    
Tb4      Tb     0.897960000000     0.012940000000     0.013790000000     4.30422    
Tb5      Tb     0.121520000000     0.007880000000     0.008290000000     6.47595    
Tb6      Tb     0.011830000000     0.012250000000     0.898220000000     3.10122    
Tb7      Tb     0.009210000000     0.509830000000     0.397710000000     6.48332    
Tb8      Tb     0.009710000000     0.620070000000     0.506050000000     4.25648    
Tb9      Tb     0.008580000000     0.396640000000     0.510040000000     6.42536    
Tb10     Tb     0.897950000000     0.505800000000     0.504810000000     4.35382    
Tb11     Tb     0.121090000000     0.511480000000     0.511120000000     6.52264    
Tb12     Tb     0.010540000000     0.506340000000     0.620500000000     3.15031    
Tb13     Tb     0.507620000000     0.009360000000     0.397400000000     6.4909     
Tb14     Tb     0.397760000000     0.013020000000     0.505040000000     4.38282    
Tb15     Tb     0.620830000000     0.007780000000     0.510650000000     6.41686    
Tb16     Tb     0.509640000000     0.899120000000     0.505470000000     4.32766    
Tb17     Tb     0.508350000000     0.122300000000     0.510260000000     6.50435    
Tb18     Tb     0.511240000000     0.012480000000     0.620500000000     3.08918    
Tb19     Tb     0.510660000000     0.398170000000     0.009250000000     6.55443    
Tb20     Tb     0.619750000000     0.507680000000     0.010080000000     4.32711    
Tb21     Tb     0.396360000000     0.509680000000     0.009690000000     6.46792    
Tb22     Tb     0.506240000000     0.505810000000     0.898590000000     4.37549    
Tb23     Tb     0.510900000000     0.511200000000     0.121560000000     6.79264    
Tb24     Tb     0.505140000000     0.621240000000     0.011670000000     3.05137    


