data_structure

_audit_creation_method RASPA-1.0
_audit_creation_date 2023-5-19
_audit_author_name 'Poobodin Mano'

_cell_length_a    20.2594
_cell_length_b    20.1673
_cell_length_c    20.2209
_cell_angle_alpha 90
_cell_angle_beta  90
_cell_angle_gamma 90
_cell_volume      8261.8

_symmetry_cell_setting          triclinic
_symmetry_space_group_name_Hall 'P 1'
_symmetry_space_group_name_H-M  'P 1'
_symmetry_Int_Tables_number     1

_symmetry_equiv_pos_as_xyz 'x,y,z'

loop_
_atom_site_label
_atom_site_type_symbol
_atom_site_fract_x
_atom_site_fract_y
_atom_site_fract_z
_atom_site_charge
Br1      Br     0.506880000000     0.316670000000     0.416040000000    -0.224826   
Br2      Br     0.534290000000     0.697720000000     0.412700000000    -0.202918   
Br3      Br     0.354790000000     0.679010000000     0.781420000000    -0.170478   
Br4      Br     0.519940000000     0.208980000000     0.913620000000    -0.195596   
Br5      Br     0.802830000000     0.110730000000     0.442110000000    -0.176383   
Br6      Br     0.802710000000     0.905010000000     0.575520000000    -0.176429   
Br7      Br     0.193890000000     0.102480000000     0.489640000000    -0.221878   
Br8      Br     0.408640000000     0.701450000000     0.537960000000    -0.192755   
Br9      Br     0.904500000000     0.497420000000     0.201560000000    -0.145263   
Br10     Br     0.103520000000     0.527910000000     0.208220000000    -0.182599   
Br11     Br     0.251770000000     0.371550000000     0.664820000000    -0.185109   
Br12     Br     0.808440000000     0.468310000000     0.906880000000    -0.171651   
Br13     Br     0.811010000000     0.608230000000     0.024880000000    -0.171495   
Br14     Br     0.908950000000     0.318700000000     0.039360000000    -0.1897     
Br15     Br     0.274870000000     0.682080000000     0.870390000000    -0.174937   
Br16     Br     0.406850000000     0.210700000000     0.049760000000    -0.193257   
Br17     Br     0.798280000000     0.086840000000     0.622550000000    -0.187772   
Br18     Br     0.403920000000     0.965520000000     0.809260000000    -0.200054   
Br19     Br     0.411140000000     0.038650000000     0.201920000000    -0.224298   
Br20     Br     0.793900000000     0.939370000000     0.398650000000    -0.181981   
Br21     Br     0.155150000000     0.325310000000     0.715740000000    -0.177518   
Br22     Br     0.983270000000     0.600070000000     0.820450000000    -0.190956   
Br23     Br     0.998690000000     0.701030000000     0.109500000000    -0.181251   
Br24     Br     0.972380000000     0.402570000000     0.206880000000    -0.143556   
C1       C      0.031310000000     0.163800000000     0.157600000000     0.71664    
C2       C      0.009790000000     0.855440000000     0.162450000000     0.693659   
C3       C      0.851340000000     0.018910000000     0.163540000000     0.663969   
C4       C      0.159290000000     0.026350000000     0.158100000000     0.735972   
C5       C      0.995910000000     0.854540000000     0.858820000000     0.561799   
C6       C      0.014820000000     0.158670000000     0.848990000000     0.653738   
C7       C      0.851190000000     0.859990000000     0.010310000000     0.583346   
C8       C      0.156840000000     0.853420000000     0.015470000000     0.697613   
C9       C      0.158670000000     0.162730000000     0.017260000000     0.724957   
C10      C      0.854030000000     0.167010000000     0.016460000000     0.708369   
C11      C      0.851380000000     0.008940000000     0.859610000000     0.569106   
C12      C      0.157040000000     0.010850000000     0.850750000000     0.660519   
C13      C      0.023320000000     0.358540000000     0.352930000000     0.730762   
C14      C      0.010790000000     0.666650000000     0.361050000000     0.692424   
C15      C      0.850400000000     0.513260000000     0.353990000000     0.689241   
C16      C      0.157150000000     0.496510000000     0.359070000000     0.757282   
C17      C      0.997680000000     0.654720000000     0.666990000000     0.574541   
C18      C      0.013750000000     0.345680000000     0.655390000000     0.672282   
C19      C      0.853860000000     0.660440000000     0.517170000000     0.592622   
C20      C      0.159110000000     0.662010000000     0.508360000000     0.691577   
C21      C      0.154610000000     0.355170000000     0.487370000000     0.734467   
C22      C      0.846880000000     0.356960000000     0.490410000000     0.695456   
C23      C      0.851920000000     0.506210000000     0.659360000000     0.572593   
C24      C      0.154850000000     0.493900000000     0.669530000000     0.652185   
C25      C      0.659790000000     0.018490000000     0.360110000000     0.749874   
C26      C      0.353200000000     0.014090000000     0.352550000000     0.682756   
C27      C      0.515210000000     0.851550000000     0.359850000000     0.69516    
C28      C      0.520020000000     0.163080000000     0.359550000000     0.756091   
C29      C      0.352800000000     0.003130000000     0.659720000000     0.583266   
C30      C      0.657000000000     0.024250000000     0.667780000000     0.661797   
C31      C      0.355440000000     0.854180000000     0.511980000000     0.601265   
C32      C      0.346790000000     0.159550000000     0.493850000000     0.707732   
C33      C      0.655070000000     0.161630000000     0.487890000000     0.743101   
C34      C      0.660560000000     0.854880000000     0.515710000000     0.701399   
C35      C      0.495510000000     0.860480000000     0.664500000000     0.558048   
C36      C      0.504170000000     0.165950000000     0.664010000000     0.65388    
C37      C      0.353750000000     0.357340000000     0.002590000000     0.749689   
C38      C      0.354680000000     0.669960000000     0.004570000000     0.695652   
C39      C      0.353040000000     0.506660000000     0.167180000000     0.672581   
C40      C      0.350560000000     0.494100000000     0.860120000000     0.726362   
C41      C      0.657840000000     0.663300000000     0.012940000000     0.581157   
C42      C      0.660120000000     0.359320000000     0.003990000000     0.664059   
C43      C      0.511370000000     0.662530000000     0.162230000000     0.606797   
C44      C      0.489180000000     0.670900000000     0.859860000000     0.697319   
C45      C      0.490200000000     0.359770000000     0.857950000000     0.749783   
C46      C      0.502960000000     0.356840000000     0.164480000000     0.691029   
C47      C      0.655800000000     0.519260000000     0.160390000000     0.571169   
C48      C      0.659020000000     0.505800000000     0.854480000000     0.646961   
C49      C      0.517380000000     0.243730000000     0.196990000000     0.0522329  
C50      C      0.505810000000     0.326570000000     0.277850000000     0.00995534 
C51      C      0.523160000000     0.195720000000     0.246650000000     0.0536612  
C52      C      0.511990000000     0.279210000000     0.327950000000     0.162428   
C53      C      0.513330000000     0.775280000000     0.196320000000     0.0364148  
C54      C      0.521570000000     0.690010000000     0.275370000000     0.0109728  
C55      C      0.514410000000     0.822140000000     0.246740000000     0.0566854  
C56      C      0.523180000000     0.736430000000     0.326190000000     0.15575    
C57      C      0.529220000000     0.821030000000     0.769090000000     0.0413409  
C58      C      0.446300000000     0.763100000000     0.710580000000     0.0171096  
C59      C      0.527500000000     0.773210000000     0.818770000000     0.0658446  
C60      C      0.440560000000     0.718000000000     0.763620000000     0.159982   
C61      C      0.490690000000     0.279080000000     0.695790000000     0.0493007  
C62      C      0.505440000000     0.196730000000     0.776820000000     0.00674909 
C63      C      0.485680000000     0.327080000000     0.745340000000     0.0533683  
C64      C      0.501920000000     0.244310000000     0.826630000000     0.166477   
C65      C      0.733520000000     0.325050000000     0.490660000000     0.0428188  
C66      C      0.816070000000     0.245310000000     0.471920000000     0.0244123  
C67      C      0.685640000000     0.275230000000     0.489270000000     0.0581684  
C68      C      0.768490000000     0.195460000000     0.468880000000     0.158411   
C69      C      0.741290000000     0.693040000000     0.509400000000     0.043915   
C70      C      0.822200000000     0.772620000000     0.535180000000     0.0110284  
C71      C      0.693130000000     0.742330000000     0.509560000000     0.0494861  
C72      C      0.773710000000     0.822040000000     0.537670000000     0.166247   
C73      C      0.267380000000     0.322030000000     0.481970000000     0.0577447  
C74      C      0.183760000000     0.241190000000     0.482440000000     0.0273561  
C75      C      0.315060000000     0.272210000000     0.484550000000     0.0536997  
C76      C      0.231060000000     0.190790000000     0.485630000000     0.153042   
C77      C      0.192860000000     0.775180000000     0.504230000000     0.0478179  
C78      C      0.272260000000     0.691100000000     0.516890000000     0.0284732  
C79      C      0.242760000000     0.822850000000     0.506010000000     0.0416484  
C80      C      0.322550000000     0.738420000000     0.519780000000     0.147036   
C81      C      0.688480000000     0.524510000000     0.273750000000     0.0407788  
C82      C      0.769130000000     0.520400000000     0.190360000000     0.00754462 
C83      C      0.737980000000     0.522070000000     0.321840000000     0.050751   
C84      C      0.819010000000     0.517240000000     0.237990000000     0.15961    
C85      C      0.319660000000     0.491780000000     0.279540000000     0.0376714  
C86      C      0.239980000000     0.509840000000     0.196940000000     0.0170326  
C87      C      0.269650000000     0.488390000000     0.327110000000     0.0547076  
C88      C      0.189740000000     0.507770000000     0.244070000000     0.155134   
C89      C      0.240110000000     0.516790000000     0.827390000000     0.0711325  
C90      C      0.311120000000     0.460390000000     0.754120000000     0.0268767  
C91      C      0.191080000000     0.518460000000     0.778800000000     0.0496769  
C92      C      0.258920000000     0.454940000000     0.708730000000     0.157711   
C93      C      0.738820000000     0.514570000000     0.692010000000     0.0375566  
C94      C      0.820970000000     0.494890000000     0.771750000000     0.0118295  
C95      C      0.690740000000     0.513540000000     0.741660000000     0.0561465  
C96      C      0.773400000000     0.492770000000     0.821510000000     0.158266   
C97      C      0.737510000000     0.827090000000     0.010390000000     0.0397365  
C98      C      0.820890000000     0.746230000000     0.013270000000     0.01511    
C99      C      0.689530000000     0.777000000000     0.011910000000     0.0451704  
C100     C      0.773530000000     0.695860000000     0.015640000000     0.15114    
C101     C      0.692640000000     0.246100000000     0.005380000000     0.0495539  
C102     C      0.772520000000     0.329980000000     0.017130000000     0.0126072  
C103     C      0.741860000000     0.198280000000     0.010090000000     0.0503272  
C104     C      0.822320000000     0.282580000000     0.021620000000     0.165453   
C105     C      0.260270000000     0.814700000000     0.051090000000     0.0548068  
C106     C      0.202150000000     0.756310000000     0.967740000000     0.0271934  
C107     C      0.311490000000     0.769120000000     0.047130000000     0.0535185  
C108     C      0.256930000000     0.714660000000     0.958940000000     0.156965   
C109     C      0.191460000000     0.275950000000     0.004430000000     0.0461255  
C110     C      0.271670000000     0.194390000000     0.024890000000     0.0178742  
C111     C      0.241060000000     0.324110000000     0.999170000000     0.0542205  
C112     C      0.321510000000     0.242590000000     0.021940000000     0.158809   
C113     C      0.738100000000     0.002890000000     0.827970000000     0.0407992  
C114     C      0.818690000000     0.032860000000     0.749600000000     0.00731814 
C115     C      0.689220000000     0.008650000000     0.779520000000     0.0463232  
C116     C      0.769790000000     0.041750000000     0.701760000000     0.168137   
C117     C      0.190130000000     0.013340000000     0.737550000000     0.0450103  
C118     C      0.269320000000     0.997310000000     0.821210000000     0.0329273  
C119     C      0.239880000000     0.009930000000     0.689860000000     0.0483812  
C120     C      0.319150000000     0.992250000000     0.773950000000     0.149648   
C121     C      0.191810000000     0.022560000000     0.271300000000     0.054979   
C122     C      0.272850000000     0.032060000000     0.188680000000     0.0207185  
C123     C      0.241040000000     0.018010000000     0.319360000000     0.037584   
C124     C      0.322780000000     0.028300000000     0.236670000000     0.150408   
C125     C      0.741220000000     0.040350000000     0.199660000000     0.0376877  
C126     C      0.819260000000     0.997410000000     0.274440000000     0.0191881  
C127     C      0.693470000000     0.040320000000     0.249700000000     0.0551631  
C128     C      0.770690000000     0.993400000000     0.323560000000     0.165643   
C129     C      0.971280000000     0.200070000000     0.749880000000     0.0470772  
C130     C      0.066020000000     0.250100000000     0.797240000000     0.028242   
C131     C      0.971150000000     0.247340000000     0.700000000000     0.0663267  
C132     C      0.069700000000     0.293050000000     0.743110000000     0.149615   
C133     C      0.995260000000     0.819080000000     0.745910000000     0.0388686  
C134     C      0.990100000000     0.739480000000     0.830420000000     0.0164023  
C135     C      0.995620000000     0.768390000000     0.698550000000     0.0504749  
C136     C      0.990330000000     0.688090000000     0.783240000000     0.151316   
C137     C      0.014820000000     0.779740000000     0.326730000000     0.0395177  
C138     C      0.007690000000     0.694420000000     0.247630000000     0.026681   
C139     C      0.014310000000     0.826570000000     0.275920000000     0.0553929  
C140     C      0.007210000000     0.740500000000     0.196550000000     0.149346   
C141     C      0.047960000000     0.197620000000     0.270180000000     0.0456468  
C142     C      0.028710000000     0.277810000000     0.188310000000     0.0211867  
C143     C      0.045520000000     0.247260000000     0.318920000000     0.048754   
C144     C      0.020540000000     0.326580000000     0.237130000000     0.151139   
H1       H      0.958480000000     0.964230000000     0.058610000000    -1.23696    
H2       H      0.046160000000     0.049810000000     0.046690000000    -1.10435    
H3       H      0.946920000000     0.122080000000     0.947840000000    -0.541933   
H4       H      0.114800000000     0.948710000000     0.948730000000    -0.586568   
H5       H      0.958410000000     0.556680000000     0.462020000000    -1.27324    
H6       H      0.043980000000     0.468670000000     0.470130000000    -1.11199    
H7       H      0.942590000000     0.393800000000     0.564530000000    -0.519961   
H8       H      0.116070000000     0.564430000000     0.572720000000    -0.539053   
H9       H      0.459650000000     0.960710000000     0.460740000000    -1.24844    
H10      H      0.544690000000     0.049090000000     0.471610000000    -1.10463    
H11      H      0.615520000000     0.952700000000     0.573240000000    -0.569905   
H12      H      0.441670000000     0.120920000000     0.566980000000    -0.562193   
H13      H      0.455770000000     0.559430000000     0.057770000000    -1.26275    
H14      H      0.464630000000     0.472790000000     0.969820000000    -1.05527    
H15      H      0.564100000000     0.401340000000     0.068040000000    -0.605304   
H16      H      0.562000000000     0.573480000000     0.896980000000    -0.500154   
H17      H      0.530360000000     0.144810000000     0.231040000000     0.0426089  
H18      H      0.521390000000     0.227510000000     0.146090000000     0.0495902  
H19      H      0.499020000000     0.377900000000     0.292390000000     0.0591858  
H20      H      0.511220000000     0.873720000000     0.231970000000     0.0355878  
H21      H      0.509310000000     0.792940000000     0.145840000000     0.0399795  
H22      H      0.525400000000     0.638050000000     0.288710000000     0.0619818  
H23      H      0.561750000000     0.777840000000     0.859780000000     0.0301461  
H24      H      0.564070000000     0.861610000000     0.773930000000     0.041921   
H25      H      0.409540000000     0.762140000000     0.671720000000     0.0678333  
H26      H      0.477320000000     0.377830000000     0.729760000000     0.0339319  
H27      H      0.485850000000     0.295030000000     0.644810000000     0.0368134  
H28      H      0.514160000000     0.145700000000     0.791380000000     0.0684209  
H29      H      0.635030000000     0.290220000000     0.497890000000     0.0444772  
H30      H      0.717370000000     0.375540000000     0.499440000000     0.0381808  
H31      H      0.867140000000     0.231620000000     0.463270000000     0.0567738  
H32      H      0.643050000000     0.727130000000     0.499350000000     0.0549783  
H33      H      0.725650000000     0.642780000000     0.498550000000     0.0402375  
H34      H      0.872470000000     0.786050000000     0.547910000000     0.0616723  
H35      H      0.366180000000     0.287970000000     0.485060000000     0.044234   
H36      H      0.284250000000     0.373040000000     0.481000000000     0.0384895  
H37      H      0.132170000000     0.226830000000     0.481940000000     0.0574478  
H38      H      0.227630000000     0.874150000000     0.500790000000     0.0403623  
H39      H      0.142420000000     0.792130000000     0.498230000000     0.0355988  
H40      H      0.285940000000     0.639400000000     0.522360000000     0.0547869  
H41      H      0.722300000000     0.523590000000     0.373090000000     0.0373705  
H42      H      0.637680000000     0.527180000000     0.290410000000     0.0424321  
H43      H      0.783530000000     0.517210000000     0.138890000000     0.0820874  
H44      H      0.284530000000     0.479160000000     0.377790000000     0.0342687  
H45      H      0.370220000000     0.485140000000     0.295830000000     0.0403954  
H46      H      0.226070000000     0.519110000000     0.145970000000     0.0546985  
H47      H      0.145170000000     0.543760000000     0.789960000000     0.0535046  
H48      H      0.229280000000     0.539600000000     0.874680000000     0.0457286  
H49      H      0.355910000000     0.432280000000     0.745220000000     0.0466536  
H50      H      0.640040000000     0.521940000000     0.726680000000     0.030591   
H51      H      0.722820000000     0.523160000000     0.641560000000     0.0398862  
H52      H      0.871850000000     0.485920000000     0.785790000000     0.077354   
H53      H      0.638330000000     0.792550000000     0.010710000000     0.0382496  
H54      H      0.720850000000     0.878140000000     0.008600000000     0.0369495  
H55      H      0.872380000000     0.731640000000     0.014370000000     0.0762727  
H56      H      0.726470000000     0.146890000000     0.006690000000     0.0370761  
H57      H      0.642200000000     0.229320000000     0.999640000000     0.0500859  
H58      H      0.786280000000     0.381530000000     0.023120000000     0.0817109  
H59      H      0.352930000000     0.774110000000     0.080800000000     0.0258735  
H60      H      0.264230000000     0.855010000000     0.086450000000     0.0296453  
H61      H      0.162260000000     0.754380000000     0.931970000000     0.0535581  
H62      H      0.225730000000     0.374410000000     0.988080000000     0.0357017  
H63      H      0.140840000000     0.291740000000     0.997040000000     0.0449828  
H64      H      0.285690000000     0.143800000000     0.036550000000     0.0585166  
H65      H      0.638980000000     0.996830000000     0.793810000000     0.0420807  
H66      H      0.723210000000     0.988090000000     0.877320000000     0.0408593  
H67      H      0.869020000000     0.045520000000     0.736370000000     0.064121   
H68      H      0.225290000000     0.016360000000     0.638680000000     0.0482024  
H69      H      0.139880000000     0.021350000000     0.720920000000     0.0413947  
H70      H      0.282940000000     0.990310000000     0.872610000000     0.0577901  
H71      H      0.224860000000     0.011580000000     0.370000000000     0.0483677  
H72      H      0.140950000000     0.019680000000     0.287740000000     0.031709   
H73      H      0.287400000000     0.037980000000     0.137390000000     0.0569866  
H74      H      0.644900000000     0.059340000000     0.237510000000     0.031636   
H75      H      0.727140000000     0.058670000000     0.151250000000     0.037823   
H76      H      0.867780000000     0.977430000000     0.285370000000     0.0526685  
H77      H      0.931860000000     0.246450000000     0.663510000000     0.0364567  
H78      H      0.932730000000     0.162690000000     0.750180000000     0.0382351  
H79      H      0.106520000000     0.248440000000     0.832340000000     0.0472546  
H80      H      0.997900000000     0.783770000000     0.647240000000     0.0409307  
H81      H      0.997260000000     0.869820000000     0.728330000000     0.0444838  
H82      H      0.987460000000     0.725810000000     0.882230000000     0.0713327  
H83      H      0.017280000000     0.878280000000     0.290280000000     0.0300561  
H84      H      0.017910000000     0.797290000000     0.377320000000     0.0373332  
H85      H      0.003900000000     0.642570000000     0.234090000000     0.0757825  
H86      H      0.054420000000     0.232310000000     0.369650000000     0.0376305  
H87      H      0.057380000000     0.147080000000     0.285870000000     0.0343076  
H88      H      0.019780000000     0.291930000000     0.137410000000     0.0696824  
N1       N      0.507880000000     0.309050000000     0.212660000000    -0.222477   
N2       N      0.519550000000     0.212610000000     0.312340000000    -0.256263   
N3       N      0.515580000000     0.709250000000     0.210910000000    -0.211212   
N4       N      0.518010000000     0.803300000000     0.311970000000    -0.246277   
N5       N      0.491140000000     0.814050000000     0.713690000000    -0.193851   
N6       N      0.485780000000     0.720200000000     0.813840000000    -0.244194   
N7       N      0.500440000000     0.213950000000     0.711750000000    -0.216227   
N8       N      0.491480000000     0.310350000000     0.810950000000    -0.256311   
N9       N      0.798890000000     0.309550000000     0.484210000000    -0.226239   
N10      N      0.702810000000     0.209860000000     0.480790000000    -0.253762   
N11      N      0.806090000000     0.708500000000     0.520380000000    -0.20756    
N12      N      0.709120000000     0.807360000000     0.521030000000    -0.239707   
N13      N      0.201720000000     0.306520000000     0.482650000000    -0.236146   
N14      N      0.297620000000     0.206450000000     0.487820000000    -0.241456   
N15      N      0.207730000000     0.709300000000     0.509280000000    -0.227413   
N16      N      0.307940000000     0.805160000000     0.513060000000    -0.223694   
N17      N      0.704080000000     0.522240000000     0.207980000000    -0.199177   
N18      N      0.803430000000     0.517150000000     0.304630000000    -0.242451   
N19      N      0.304680000000     0.502770000000     0.214510000000    -0.224503   
N20      N      0.204520000000     0.496750000000     0.310080000000    -0.25794    
N21      N      0.301190000000     0.490830000000     0.813760000000    -0.232685   
N22      N      0.201840000000     0.490030000000     0.718380000000    -0.226783   
N23      N      0.803990000000     0.505740000000     0.707290000000    -0.200043   
N24      N      0.707550000000     0.503590000000     0.806740000000    -0.234063   
N25      N      0.803260000000     0.811620000000     0.010880000000    -0.205206   
N26      N      0.706840000000     0.711080000000     0.013940000000    -0.218923   
N27      N      0.708200000000     0.311910000000     0.007800000000    -0.216444   
N28      N      0.806980000000     0.215980000000     0.016740000000    -0.246194   
N29      N      0.204900000000     0.806440000000     0.013440000000    -0.227367   
N30      N      0.307750000000     0.717810000000     0.003320000000    -0.246432   
N31      N      0.206880000000     0.210840000000     0.016190000000    -0.23361    
N32      N      0.306450000000     0.307980000000     0.007000000000    -0.254941   
N33      N      0.802950000000     0.013520000000     0.812480000000    -0.200192   
N34      N      0.705020000000     0.026070000000     0.715820000000    -0.234823   
N35      N      0.205150000000     0.007980000000     0.803220000000    -0.221414   
N36      N      0.304700000000     0.000960000000     0.707680000000    -0.219727   
N37      N      0.207660000000     0.028090000000     0.205780000000    -0.240337   
N38      N      0.306760000000     0.019880000000     0.302800000000    -0.239002   
N39      N      0.804330000000     0.019840000000     0.212430000000    -0.222753   
N40      N      0.708110000000     0.017930000000     0.312120000000    -0.254999   
N41      N      0.016430000000     0.204250000000     0.799920000000    -0.219854   
N42      N      0.018110000000     0.295740000000     0.699720000000    -0.24157    
N43      N      0.993400000000     0.804780000000     0.811990000000    -0.197282   
N44      N      0.994270000000     0.702500000000     0.716330000000    -0.216473   
N45      N      0.011440000000     0.713730000000     0.312360000000    -0.227523   
N46      N      0.010550000000     0.807500000000     0.210720000000    -0.245878   
N47      N      0.037890000000     0.212720000000     0.204900000000    -0.234088   
N48      N      0.030250000000     0.311800000000     0.303110000000    -0.25038    
O1       O      0.025940000000     0.181990000000     0.093990000000    -1.0468     
O2       O      0.011020000000     0.836560000000     0.099130000000    -0.787121   
O3       O      0.915370000000     0.013430000000     0.181290000000    -1.00278    
O4       O      0.096360000000     0.021960000000     0.177700000000    -1.07348    
O5       O      0.177410000000     0.025540000000     0.094390000000    -1.08493    
O6       O      0.831360000000     0.021580000000     0.100250000000    -0.773983   
O7       O      0.007400000000     0.919670000000     0.180880000000    -1.00784    
O8       O      0.026140000000     0.100670000000     0.177530000000    -1.06466    
O9       O      0.076690000000     0.945920000000     0.078810000000    -2.10263    
O10      O      0.944330000000     0.084120000000     0.079030000000    -2.0805     
O11      O      0.934080000000     0.940280000000     0.084700000000    -0.864768   
O12      O      0.020190000000     0.024180000000     0.021520000000    -2.59511    
O13      O      0.995740000000     0.837020000000     0.923400000000    -0.69684    
O14      O      0.019790000000     0.179540000000     0.912160000000    -0.906046   
O15      O      0.832250000000     0.924410000000     0.011030000000    -0.721166   
O16      O      0.176210000000     0.917110000000     0.018910000000    -0.972997   
O17      O      0.176960000000     0.098630000000     0.017070000000    -1.06269    
O18      O      0.834160000000     0.103450000000     0.018310000000    -0.765159   
O19      O      0.914860000000     0.010020000000     0.839030000000    -0.580873   
O20      O      0.093400000000     0.012190000000     0.831970000000    -0.620813   
O21      O      0.833150000000     0.007610000000     0.923910000000    -0.704536   
O22      O      0.176040000000     0.009270000000     0.914640000000    -0.954195   
O23      O      0.915020000000     0.840090000000     0.010540000000    -0.724406   
O24      O      0.917720000000     0.184170000000     0.010700000000    -0.956      
O25      O      0.095610000000     0.182140000000     0.015630000000    -1.06327    
O26      O      0.093450000000     0.834540000000     0.010240000000    -0.747425   
O27      O      0.000390000000     0.918240000000     0.838020000000    -0.578877   
O28      O      0.005650000000     0.095490000000     0.831370000000    -0.636121   
O29      O      0.076080000000     0.078070000000     0.942550000000    -2.03091    
O30      O      0.942900000000     0.949570000000     0.948330000000    -1.59512    
O31      O      0.933290000000     0.079140000000     0.936370000000    -1.23309    
O32      O      0.072330000000     0.935460000000     0.936190000000    -1.22084    
O33      O      0.020210000000     0.337600000000     0.415690000000    -1.04965    
O34      O      0.011370000000     0.685550000000     0.424900000000    -0.780861   
O35      O      0.914610000000     0.515410000000     0.337490000000    -1.00467    
O36      O      0.093950000000     0.498670000000     0.341340000000    -1.09576    
O37      O      0.176390000000     0.496440000000     0.422580000000    -1.04982    
O38      O      0.830200000000     0.509250000000     0.417300000000    -0.776278   
O39      O      0.008270000000     0.602960000000     0.341860000000    -1.04646    
O40      O      0.019680000000     0.422910000000     0.337030000000    -1.0508     
O41      O      0.077150000000     0.572530000000     0.442430000000    -2.10918    
O42      O      0.940050000000     0.438510000000     0.435300000000    -2.13488    
O43      O      0.934590000000     0.582320000000     0.437050000000    -0.869697   
O44      O      0.018510000000     0.493460000000     0.496600000000    -2.58828    
O45      O      0.000000000000     0.675540000000     0.603280000000    -0.708527   
O46      O      0.003060000000     0.329480000000     0.592100000000    -0.961519   
O47      O      0.833940000000     0.596710000000     0.512040000000    -0.741143   
O48      O      0.177240000000     0.597750000000     0.511040000000    -0.955452   
O49      O      0.174530000000     0.418210000000     0.492690000000    -1.06808    
O50      O      0.828710000000     0.420680000000     0.495600000000    -0.773382   
O51      O      0.915420000000     0.499900000000     0.679030000000    -0.58476    
O52      O      0.091480000000     0.500910000000     0.687440000000    -0.609982   
O53      O      0.833140000000     0.510840000000     0.595360000000    -0.708947   
O54      O      0.174580000000     0.492190000000     0.605540000000    -0.894309   
O55      O      0.917910000000     0.679670000000     0.518000000000    -0.733009   
O56      O      0.910420000000     0.337180000000     0.492210000000    -0.948013   
O57      O      0.091150000000     0.336650000000     0.490110000000    -1.05878    
O58      O      0.095720000000     0.681560000000     0.506840000000    -0.768823   
O59      O      0.000310000000     0.589930000000     0.683890000000    -0.556898   
O60      O      0.018200000000     0.408310000000     0.677790000000    -0.6069     
O61      O      0.073380000000     0.433340000000     0.570740000000    -1.99276    
O62      O      0.944300000000     0.566020000000     0.572460000000    -1.59483    
O63      O      0.930610000000     0.436510000000     0.578510000000    -1.2439     
O64      O      0.073260000000     0.577160000000     0.585050000000    -1.24529    
O65      O      0.677600000000     0.016160000000     0.423800000000    -1.03172    
O66      O      0.332460000000     0.013090000000     0.415900000000    -0.769691   
O67      O      0.510790000000     0.915360000000     0.340380000000    -1.00808    
O68      O      0.519240000000     0.099190000000     0.340320000000    -1.04081    
O69      O      0.517560000000     0.180720000000     0.422710000000    -1.09645    
O70      O      0.515310000000     0.833500000000     0.423530000000    -0.778342   
O71      O      0.417310000000     0.009700000000     0.336330000000    -0.992604   
O72      O      0.596640000000     0.020690000000     0.340840000000    -1.08085    
O73      O      0.442060000000     0.079210000000     0.437870000000    -2.11949    
O74      O      0.578250000000     0.944890000000     0.442210000000    -2.10224    
O75      O      0.436070000000     0.935650000000     0.434980000000    -0.864101   
O76      O      0.519100000000     0.023440000000     0.497160000000    -2.6025     
O77      O      0.334110000000     0.002710000000     0.595340000000    -0.702214   
O78      O      0.675800000000     0.022120000000     0.604040000000    -0.920981   
O79      O      0.419480000000     0.836200000000     0.511300000000    -0.723151   
O80      O      0.410170000000     0.180000000000     0.498320000000    -0.94207    
O81      O      0.591830000000     0.180630000000     0.493850000000    -1.06469    
O82      O      0.597080000000     0.835420000000     0.511550000000    -0.759354   
O83      O      0.505450000000     0.924120000000     0.682830000000    -0.555223   
O84      O      0.505800000000     0.102320000000     0.683420000000    -0.615662   
O85      O      0.492110000000     0.839980000000     0.600840000000    -0.679033   
O86      O      0.503460000000     0.184290000000     0.599980000000    -0.957178   
O87      O      0.335220000000     0.918180000000     0.509460000000    -0.741835   
O88      O      0.678090000000     0.919120000000     0.515530000000    -0.924216   
O89      O      0.674070000000     0.098500000000     0.492810000000    -1.07758    
O90      O      0.330230000000     0.095450000000     0.496090000000    -0.764054   
O91      O      0.415970000000     0.009120000000     0.679330000000    -0.562625   
O92      O      0.593380000000     0.019970000000     0.686310000000    -0.605414   
O93      O      0.574100000000     0.082550000000     0.573710000000    -2.02795    
O94      O      0.444840000000     0.949400000000     0.571600000000    -1.60295    
O95      O      0.573220000000     0.938360000000     0.585000000000    -1.22503    
O96      O      0.430230000000     0.077850000000     0.580140000000    -1.23563    
O97      O      0.417160000000     0.339850000000     0.000220000000    -1.07796    
O98      O      0.417630000000     0.689180000000     0.010140000000    -0.820764   
O99      O      0.334340000000     0.513180000000     0.103480000000    -1.01216    
O100     O      0.332920000000     0.501210000000     0.923400000000    -1.0757     
O101     O      0.413600000000     0.492980000000     0.839750000000    -1.0178     
O102     O      0.416520000000     0.504010000000     0.186150000000    -0.779032   
O103     O      0.334790000000     0.606100000000     0.002960000000    -0.975109   
O104     O      0.334450000000     0.421210000000     0.003040000000    -1.04546    
O105     O      0.433510000000     0.576630000000     0.939470000000    -2.06061    
O106     O      0.434590000000     0.440300000000     0.073900000000    -2.12822    
O107     O      0.430570000000     0.583840000000     0.082570000000    -0.867477   
O108     O      0.490760000000     0.498340000000     0.994920000000    -2.59896    
O109     O      0.593830000000     0.682880000000     0.014640000000    -0.716961   
O110     O      0.596480000000     0.340010000000     0.002860000000    -0.949421   
O111     O      0.508380000000     0.598420000000     0.181070000000    -0.752778   
O112     O      0.487090000000     0.607090000000     0.839200000000    -0.894115   
O113     O      0.492320000000     0.423270000000     0.838010000000    -1.02583    
O114     O      0.499950000000     0.420780000000     0.183120000000    -0.762135   
O115     O      0.674760000000     0.515710000000     0.096270000000    -0.566817   
O116     O      0.677190000000     0.506260000000     0.918040000000    -0.607017   
O117     O      0.592150000000     0.517850000000     0.180210000000    -0.704278   
O118     O      0.595070000000     0.509970000000     0.835580000000    -0.896992   
O119     O      0.509390000000     0.683180000000     0.098730000000    -0.7628     
O120     O      0.504820000000     0.338170000000     0.100550000000    -0.946691   
O121     O      0.489750000000     0.342330000000     0.921430000000    -1.1041     
O122     O      0.497780000000     0.688630000000     0.923070000000    -0.794113   
O123     O      0.675710000000     0.599330000000     0.007920000000    -0.575484   
O124     O      0.678560000000     0.423130000000     0.005270000000    -0.627521   
O125     O      0.566760000000     0.442320000000     0.937910000000    -2.0026     
O126     O      0.566360000000     0.572250000000     0.070050000000    -1.64146    
O127     O      0.577170000000     0.443690000000     0.081340000000    -1.23333    
O128     O      0.575460000000     0.585610000000     0.939780000000    -1.26383    
Tb1      Tb     0.005800000000     0.010360000000     0.120140000000     6.36456    
Tb2      Tb     0.005960000000     0.899080000000     0.012710000000     4.31984    
Tb3      Tb     0.006510000000     0.122570000000     0.005060000000     6.3573     
Tb4      Tb     0.894780000000     0.014000000000     0.013570000000     4.26756    
Tb5      Tb     0.117590000000     0.007640000000     0.006030000000     6.49583    
Tb6      Tb     0.006670000000     0.010780000000     0.896590000000     3.17419    
Tb7      Tb     0.004330000000     0.511700000000     0.398810000000     6.56344    
Tb8      Tb     0.007610000000     0.618730000000     0.510030000000     4.33522    
Tb9      Tb     0.001610000000     0.394710000000     0.506200000000     6.34343    
Tb10     Tb     0.893550000000     0.506590000000     0.504720000000     4.32427    
Tb11     Tb     0.116810000000     0.507260000000     0.512750000000     6.33629    
Tb12     Tb     0.006710000000     0.500400000000     0.620940000000     3.1698     
Tb13     Tb     0.506200000000     0.007140000000     0.398710000000     6.33771    
Tb14     Tb     0.394500000000     0.009460000000     0.504430000000     4.36338    
Tb15     Tb     0.617080000000     0.009310000000     0.513530000000     6.45508    
Tb16     Tb     0.508220000000     0.898020000000     0.508780000000     4.36461    
Tb17     Tb     0.502110000000     0.121930000000     0.510530000000     6.52015    
Tb18     Tb     0.506830000000     0.014210000000     0.621580000000     3.07345    
Tb19     Tb     0.392950000000     0.513610000000     0.011980000000     6.30205    
Tb20     Tb     0.501660000000     0.623470000000     0.008720000000     4.52482    
Tb21     Tb     0.505960000000     0.400020000000     0.010480000000     6.61475    
Tb22     Tb     0.501690000000     0.509530000000     0.120700000000     4.31772    
Tb23     Tb     0.504010000000     0.514240000000     0.896550000000     6.07184    
Tb24     Tb     0.615100000000     0.509690000000     0.005440000000     3.20828    


