data_structure

_audit_creation_method RASPA-1.0
_audit_creation_date 2023-5-19
_audit_author_name 'Poobodin Mano'

_cell_length_a    20.1956
_cell_length_b    20.2018
_cell_length_c    20.1897
_cell_angle_alpha 90
_cell_angle_beta  90
_cell_angle_gamma 90
_cell_volume      8237.14

_symmetry_cell_setting          triclinic
_symmetry_space_group_name_Hall 'P 1'
_symmetry_space_group_name_H-M  'P 1'
_symmetry_Int_Tables_number     1

_symmetry_equiv_pos_as_xyz 'x,y,z'

loop_
_atom_site_label
_atom_site_type_symbol
_atom_site_fract_x
_atom_site_fract_y
_atom_site_fract_z
_atom_site_charge
C1       C      0.053130000000     0.181830000000     0.183600000000     0.722201   
C2       C      0.022260000000     0.874820000000     0.185030000000     0.676468   
C3       C      0.872430000000     0.042440000000     0.183410000000     0.677472   
C4       C      0.180450000000     0.045360000000     0.184100000000     0.738647   
C5       C      0.024010000000     0.877780000000     0.879510000000     0.559847   
C6       C      0.043400000000     0.183620000000     0.875620000000     0.652847   
C7       C      0.873630000000     0.881080000000     0.025540000000     0.578917   
C8       C      0.179360000000     0.872980000000     0.046080000000     0.703092   
C9       C      0.185720000000     0.179880000000     0.051710000000     0.705408   
C10      C      0.878900000000     0.187240000000     0.040580000000     0.701474   
C11      C      0.879650000000     0.030440000000     0.878550000000     0.573082   
C12      C      0.185350000000     0.032210000000     0.876660000000     0.64723    
C13      C      0.054720000000     0.374750000000     0.378910000000     0.620205   
C14      C      0.010200000000     0.683130000000     0.379100000000     0.648442   
C15      C      0.878310000000     0.549430000000     0.377070000000     0.651599   
C16      C      0.186750000000     0.506910000000     0.380450000000     0.622579   
C17      C      0.025530000000     0.681460000000     0.685710000000     0.573143   
C18      C      0.038400000000     0.377580000000     0.683350000000     0.564296   
C19      C      0.879230000000     0.679860000000     0.510280000000     0.595531   
C20      C      0.185750000000     0.685030000000     0.525450000000     0.629595   
C21      C      0.180320000000     0.379350000000     0.513830000000     0.572646   
C22      C      0.875000000000     0.373620000000     0.515600000000     0.627177   
C23      C      0.876390000000     0.532210000000     0.683590000000     0.578701   
C24      C      0.180430000000     0.518770000000     0.684980000000     0.564601   
C25      C      0.680530000000     0.049690000000     0.378370000000     0.73857    
C26      C      0.372560000000     0.038240000000     0.378800000000     0.67953    
C27      C      0.528980000000     0.876240000000     0.377020000000     0.693551   
C28      C      0.541180000000     0.184470000000     0.379390000000     0.737644   
C29      C      0.379780000000     0.026450000000     0.683640000000     0.570393   
C30      C      0.685300000000     0.035230000000     0.685510000000     0.645737   
C31      C      0.378360000000     0.878600000000     0.533360000000     0.595683   
C32      C      0.374240000000     0.184700000000     0.520660000000     0.685858   
C33      C      0.681470000000     0.181120000000     0.510370000000     0.732366   
C34      C      0.684240000000     0.874180000000     0.515520000000     0.676617   
C35      C      0.527620000000     0.876970000000     0.682230000000     0.558685   
C36      C      0.539170000000     0.182690000000     0.686450000000     0.665836   
C37      C      0.380070000000     0.375210000000     0.052550000000     0.719643   
C38      C      0.688050000000     0.381320000000     0.036730000000     0.688572   
C39      C      0.530490000000     0.376760000000     0.876940000000     0.688759   
C40      C      0.522750000000     0.379030000000     0.185510000000     0.743105   
C41      C      0.678330000000     0.686320000000     0.023520000000     0.555545   
C42      C      0.372690000000     0.681730000000     0.042570000000     0.659375   
C43      C      0.680820000000     0.535690000000     0.877200000000     0.580609   
C44      C      0.686540000000     0.531900000000     0.183390000000     0.702      
C45      C      0.380090000000     0.506600000000     0.185400000000     0.724451   
C46      C      0.374660000000     0.515160000000     0.877450000000     0.69335    
C47      C      0.527940000000     0.681930000000     0.877500000000     0.557913   
C48      C      0.519000000000     0.686170000000     0.183190000000     0.676183   
C49      C      0.535640000000     0.216280000000     0.265560000000     0.04534    
C50      C      0.536300000000     0.298550000000     0.348200000000     0.0453739  
C51      C      0.529280000000     0.347470000000     0.299490000000     0.046125   
C52      C      0.528690000000     0.265160000000     0.216890000000     0.0450989  
C53      C      0.524650000000     0.763600000000     0.345390000000     0.0390894  
C54      C      0.522020000000     0.847200000000     0.263520000000     0.0548376  
C55      C      0.518350000000     0.799180000000     0.214520000000     0.0341595  
C56      C      0.520760000000     0.715680000000     0.296500000000     0.0549606  
C57      C      0.527990000000     0.713400000000     0.762990000000     0.0406232  
C58      C      0.527230000000     0.795860000000     0.845340000000     0.0384348  
C59      C      0.526770000000     0.844890000000     0.796250000000     0.0385659  
C60      C      0.527210000000     0.762550000000     0.713780000000     0.040774   
C61      C      0.540120000000     0.214150000000     0.799630000000     0.0342967  
C62      C      0.537010000000     0.296010000000     0.716110000000     0.053636   
C63      C      0.533630000000     0.344950000000     0.764130000000     0.0400252  
C64      C      0.536980000000     0.263210000000     0.847750000000     0.0548403  
C65      C      0.843940000000     0.260500000000     0.505430000000     0.0332498  
C66      C      0.761520000000     0.343210000000     0.508000000000     0.0355384  
C67      C      0.712600000000     0.294600000000     0.505610000000     0.0535604  
C68      C      0.795010000000     0.211860000000     0.503240000000     0.0542038  
C69      C      0.847380000000     0.793860000000     0.506980000000     0.0341787  
C70      C      0.765070000000     0.711350000000     0.505190000000     0.0381153  
C71      C      0.715880000000     0.760320000000     0.507070000000     0.0434746  
C72      C      0.798210000000     0.842800000000     0.508940000000     0.0513756  
C73      C      0.211690000000     0.265370000000     0.509790000000     0.0353813  
C74      C      0.294290000000     0.347680000000     0.512050000000     0.0317144  
C75      C      0.343140000000     0.298590000000     0.514570000000     0.0541732  
C76      C      0.260560000000     0.216270000000     0.512200000000     0.0459498  
C77      C      0.299130000000     0.716220000000     0.526970000000     0.0427593  
C78      C      0.216250000000     0.798530000000     0.529820000000     0.0450593  
C79      C      0.264830000000     0.847350000000     0.532870000000     0.0392737  
C80      C      0.347700000000     0.765020000000     0.530190000000     0.04056    
C81      C      0.765070000000     0.549010000000     0.345360000000     0.0363876  
C82      C      0.848090000000     0.549390000000     0.263140000000     0.0443467  
C83      C      0.799820000000     0.542380000000     0.214250000000     0.0412605  
C84      C      0.716880000000     0.542180000000     0.296570000000     0.0549432  
C85      C      0.300990000000     0.501130000000     0.349300000000     0.0303611  
C86      C      0.218430000000     0.493480000000     0.267300000000     0.0359671  
C87      C      0.267150000000     0.493590000000     0.218010000000     0.0471991  
C88      C      0.349840000000     0.500930000000     0.299900000000     0.0523702  
C89      C      0.293930000000     0.511180000000     0.715540000000     0.0376949  
C90      C      0.211720000000     0.512800000000     0.798520000000     0.0297633  
C91      C      0.260810000000     0.511770000000     0.847120000000     0.0587305  
C92      C      0.342970000000     0.510080000000     0.764100000000     0.0487187  
C93      C      0.761950000000     0.533400000000     0.714180000000     0.0416894  
C94      C      0.843890000000     0.538310000000     0.797050000000     0.0366357  
C95      C      0.794670000000     0.539490000000     0.845740000000     0.042243   
C96      C      0.712590000000     0.534700000000     0.763000000000     0.0390114  
C97      C      0.758950000000     0.850050000000     0.023060000000     0.0413202  
C98      C      0.841130000000     0.767510000000     0.019740000000     0.0402007  
C99      C      0.792060000000     0.718570000000     0.019060000000     0.0392547  
C100     C      0.709670000000     0.800900000000     0.022540000000     0.0343629  
C101     C      0.849750000000     0.301150000000     0.042050000000     0.0527927  
C102     C      0.766250000000     0.219300000000     0.043660000000     0.0404213  
C103     C      0.718180000000     0.268240000000     0.042120000000     0.0519017  
C104     C      0.801480000000     0.350310000000     0.040740000000     0.0377194  
C105     C      0.209770000000     0.759370000000     0.050030000000     0.041599   
C106     C      0.292190000000     0.842310000000     0.051620000000     0.0581338  
C107     C      0.340960000000     0.794130000000     0.050360000000     0.0332491  
C108     C      0.258820000000     0.710910000000     0.048810000000     0.0503193  
C109     C      0.217840000000     0.293300000000     0.061890000000     0.0429332  
C110     C      0.300290000000     0.211100000000     0.057980000000     0.0422458  
C111     C      0.349430000000     0.260490000000     0.058220000000     0.0431398  
C112     C      0.266750000000     0.342460000000     0.062190000000     0.0441805  
C113     C      0.765960000000     0.031670000000     0.847570000000     0.0420463  
C114     C      0.848300000000     0.032330000000     0.764730000000     0.0312995  
C115     C      0.799260000000     0.034350000000     0.716030000000     0.0551438  
C116     C      0.717020000000     0.033780000000     0.798960000000     0.0406956  
C117     C      0.299330000000     0.029720000000     0.846200000000     0.0553392  
C118     C      0.217130000000     0.029570000000     0.763240000000     0.0413004  
C119     C      0.266090000000     0.027120000000     0.714640000000     0.0418448  
C120     C      0.348400000000     0.027460000000     0.797490000000     0.0309349  
C121     C      0.210650000000     0.048870000000     0.298120000000     0.0517478  
C122     C      0.293790000000     0.048570000000     0.216080000000     0.0474471  
C123     C      0.342210000000     0.045550000000     0.265180000000     0.0437751  
C124     C      0.259150000000     0.046100000000     0.347290000000     0.0349571  
C125     C      0.759070000000     0.051770000000     0.215030000000     0.0348105  
C126     C      0.842200000000     0.050600000000     0.297040000000     0.0434274  
C127     C      0.793830000000     0.053630000000     0.346230000000     0.0476794  
C128     C      0.710610000000     0.054610000000     0.264300000000     0.0516187  
C129     C      0.046940000000     0.297180000000     0.845110000000     0.0566928  
C130     C      0.046310000000     0.214950000000     0.762110000000     0.0421527  
C131     C      0.044850000000     0.263950000000     0.713540000000     0.0402146  
C132     C      0.045410000000     0.346140000000     0.796580000000     0.0309009  
C133     C      0.024940000000     0.845210000000     0.765520000000     0.0353752  
C134     C      0.018990000000     0.763480000000     0.848400000000     0.0424603  
C135     C      0.019580000000     0.714010000000     0.799600000000     0.0368018  
C136     C      0.025530000000     0.795770000000     0.716760000000     0.044322   
C137     C      0.012940000000     0.845010000000     0.298690000000     0.0489887  
C138     C      0.011670000000     0.761960000000     0.216540000000     0.0387292  
C139     C      0.006570000000     0.713700000000     0.265510000000     0.0441081  
C140     C      0.008180000000     0.796660000000     0.347740000000     0.0364831  
C141     C      0.059910000000     0.212120000000     0.297900000000     0.0517441  
C142     C      0.066660000000     0.294860000000     0.216020000000     0.0467876  
C143     C      0.067410000000     0.343520000000     0.265440000000     0.0360103  
C144     C      0.060400000000     0.260810000000     0.347320000000     0.0305481  
H1       H      0.980830000000     0.984380000000     0.080400000000    -1.26951    
H2       H      0.069850000000     0.069200000000     0.071120000000    -1.10227    
H3       H      0.973370000000     0.143510000000     0.971420000000    -0.535794   
H4       H      0.140700000000     0.967620000000     0.973780000000    -0.538966   
H5       H      0.991770000000     0.568180000000     0.488070000000    -0.686992   
H6       H      0.069940000000     0.490160000000     0.488520000000    -1.58891    
H7       H      0.968480000000     0.418170000000     0.587570000000    -0.24011    
H8       H      0.140060000000     0.589440000000     0.590100000000    -0.25771    
H9       H      0.482400000000     0.983640000000     0.481810000000    -1.25789    
H10      H      0.569310000000     0.069960000000     0.491470000000    -1.10794    
H11      H      0.642520000000     0.968810000000     0.588460000000    -0.535364   
H12      H      0.470090000000     0.141840000000     0.590990000000    -0.556382   
H13      H      0.577290000000     0.482300000000     0.984060000000    -1.24027    
H14      H      0.491040000000     0.490570000000     0.071580000000    -1.14683    
H15      H      0.415610000000     0.586690000000     0.972030000000    -0.548526   
H16      H      0.588170000000     0.592110000000     0.141140000000    -0.614472   
H17      H      0.537540000000     0.165150000000     0.249360000000     0.0251239  
H18      H      0.538680000000     0.314480000000     0.399420000000     0.0272972  
H19      H      0.527340000000     0.398620000000     0.315610000000     0.0267786  
H20      H      0.526260000000     0.249140000000     0.165700000000     0.0250903  
H21      H      0.526900000000     0.747000000000     0.396420000000     0.0317097  
H22      H      0.522180000000     0.898610000000     0.248090000000     0.0225313  
H23      H      0.516100000000     0.815560000000     0.163420000000     0.0319943  
H24      H      0.520590000000     0.664330000000     0.312110000000     0.0248135  
H25      H      0.528410000000     0.662150000000     0.747090000000     0.033095   
H26      H      0.527180000000     0.812010000000     0.896540000000     0.0348968  
H27      H      0.526380000000     0.896070000000     0.812380000000     0.0348939  
H28      H      0.527310000000     0.746620000000     0.662510000000     0.0329851  
H29      H      0.542470000000     0.163090000000     0.816020000000     0.0328278  
H30      H      0.536750000000     0.311600000000     0.664720000000     0.0254224  
H31      H      0.531260000000     0.395940000000     0.747520000000     0.0319295  
H32      H      0.537270000000     0.247810000000     0.899200000000     0.0230815  
H33      H      0.895180000000     0.244480000000     0.505140000000     0.0320198  
H34      H      0.745700000000     0.394470000000     0.509720000000     0.0302742  
H35      H      0.661390000000     0.310720000000     0.505960000000     0.026929   
H36      H      0.810870000000     0.160620000000     0.501550000000     0.0272685  
H37      H      0.898580000000     0.809970000000     0.507170000000     0.0336607  
H38      H      0.749160000000     0.660110000000     0.503900000000     0.0330913  
H39      H      0.664640000000     0.744320000000     0.507000000000     0.0303768  
H40      H      0.814150000000     0.894020000000     0.510360000000     0.0246136  
H41      H      0.160460000000     0.249450000000     0.508050000000     0.0348192  
H42      H      0.310400000000     0.398870000000     0.512230000000     0.0351635  
H43      H      0.394380000000     0.314480000000     0.516320000000     0.0239298  
H44      H      0.244520000000     0.165060000000     0.512000000000     0.0299478  
H45      H      0.315230000000     0.665060000000     0.524850000000     0.0306218  
H46      H      0.164940000000     0.814300000000     0.529990000000     0.0298945  
H47      H      0.248650000000     0.898480000000     0.535000000000     0.0326221  
H48      H      0.398970000000     0.749100000000     0.530010000000     0.0325306  
H49      H      0.748700000000     0.551020000000     0.396480000000     0.0325865  
H50      H      0.899370000000     0.551630000000     0.247410000000     0.0241692  
H51      H      0.815980000000     0.540310000000     0.163080000000     0.029036   
H52      H      0.665660000000     0.539870000000     0.312500000000     0.0238547  
H53      H      0.316980000000     0.504450000000     0.400450000000     0.0331581  
H54      H      0.167220000000     0.490460000000     0.251500000000     0.0260642  
H55      H      0.250930000000     0.490560000000     0.166910000000     0.0259892  
H56      H      0.401100000000     0.504150000000     0.315510000000     0.0264361  
H57      H      0.309710000000     0.510870000000     0.664210000000     0.0331454  
H58      H      0.160540000000     0.513830000000     0.814710000000     0.0373049  
H59      H      0.245120000000     0.512130000000     0.898470000000     0.0234963  
H60      H      0.394130000000     0.509050000000     0.747850000000     0.0304642  
H61      H      0.746350000000     0.530990000000     0.662870000000     0.0295063  
H62      H      0.895000000000     0.539990000000     0.813390000000     0.036224   
H63      H      0.810560000000     0.541940000000     0.896980000000     0.0329075  
H64      H      0.661420000000     0.533050000000     0.746860000000     0.0320869  
H65      H      0.743180000000     0.901310000000     0.024730000000     0.0312477  
H66      H      0.892260000000     0.751230000000     0.018510000000     0.0327522  
H67      H      0.808210000000     0.667420000000     0.017420000000     0.0333647  
H68      H      0.658420000000     0.816770000000     0.023820000000     0.0336933  
H69      H      0.901190000000     0.316510000000     0.041820000000     0.0235675  
H70      H      0.749650000000     0.168260000000     0.044880000000     0.0310844  
H71      H      0.666860000000     0.252480000000     0.042410000000     0.0234766  
H72      H      0.817720000000     0.401450000000     0.039620000000     0.0307315  
H73      H      0.158520000000     0.743400000000     0.049630000000     0.029672   
H74      H      0.308170000000     0.893530000000     0.052910000000     0.0241825  
H75      H      0.392070000000     0.810600000000     0.050850000000     0.0337028  
H76      H      0.243340000000     0.659530000000     0.047610000000     0.0245288  
H77      H      0.166630000000     0.309330000000     0.063460000000     0.0281133  
H78      H      0.316210000000     0.159890000000     0.056070000000     0.027141   
H79      H      0.400750000000     0.244860000000     0.056460000000     0.0248063  
H80      H      0.250450000000     0.393560000000     0.063940000000     0.0273738  
H81      H      0.750020000000     0.030750000000     0.898840000000     0.0334646  
H82      H      0.899500000000     0.031930000000     0.748590000000     0.0350574  
H83      H      0.814980000000     0.035200000000     0.664700000000     0.0248826  
H84      H      0.665850000000     0.034180000000     0.815210000000     0.0326383  
H85      H      0.315030000000     0.030540000000     0.897540000000     0.0247985  
H86      H      0.165970000000     0.030230000000     0.746960000000     0.0326711  
H87      H      0.250150000000     0.026270000000     0.663370000000     0.0332256  
H88      H      0.399590000000     0.026840000000     0.813640000000     0.0348277  
H89      H      0.159290000000     0.049980000000     0.313730000000     0.0250644  
H90      H      0.310180000000     0.049320000000     0.164940000000     0.0273745  
H91      H      0.393530000000     0.044500000000     0.249450000000     0.0235745  
H92      H      0.242890000000     0.045440000000     0.398470000000     0.0313047  
H93      H      0.742770000000     0.051290000000     0.163860000000     0.0309813  
H94      H      0.893520000000     0.049240000000     0.312730000000     0.0239228  
H95      H      0.810290000000     0.054110000000     0.397340000000     0.0274971  
H96      H      0.659240000000     0.055890000000     0.248760000000     0.0245369  
H97      H      0.047710000000     0.312950000000     0.896430000000     0.0243262  
H98      H      0.046570000000     0.163780000000     0.745920000000     0.0319821  
H99      H      0.044080000000     0.248240000000     0.662200000000     0.0321382  
H100     H      0.045230000000     0.397290000000     0.812840000000     0.0372529  
H101     H      0.027220000000     0.896260000000     0.749170000000     0.0346204  
H102     H      0.016340000000     0.747860000000     0.899700000000     0.0329767  
H103     H      0.017290000000     0.662920000000     0.815860000000     0.0353121  
H104     H      0.028180000000     0.811410000000     0.665460000000     0.0300874  
H105     H      0.015100000000     0.896300000000     0.314370000000     0.0224074  
H106     H      0.012600000000     0.745610000000     0.165400000000     0.0297391  
H107     H      0.004400000000     0.662450000000     0.249700000000     0.0243529  
H108     H      0.007350000000     0.812870000000     0.398930000000     0.0316492  
H109     H      0.056820000000     0.160870000000     0.313530000000     0.0252212  
H110     H      0.069140000000     0.311070000000     0.164890000000     0.0258492  
H111     H      0.070290000000     0.394770000000     0.249780000000     0.0254934  
H112     H      0.057610000000     0.244660000000     0.398450000000     0.0332767  
N1       N      0.539060000000     0.232840000000     0.331340000000    -0.244446   
N2       N      0.525700000000     0.330860000000     0.233730000000    -0.245944   
N3       N      0.525640000000     0.829230000000     0.328790000000    -0.238192   
N4       N      0.518550000000     0.733540000000     0.231150000000    -0.231498   
N5       N      0.527920000000     0.729980000000     0.828900000000    -0.204991   
N6       N      0.526880000000     0.828430000000     0.730340000000    -0.20515    
N7       N      0.539470000000     0.230680000000     0.733920000000    -0.228924   
N8       N      0.533330000000     0.328470000000     0.829840000000    -0.236818   
N9       N      0.827100000000     0.326030000000     0.509510000000    -0.218657   
N10      N      0.729370000000     0.228900000000     0.505260000000    -0.247571   
N11      N      0.830930000000     0.728000000000     0.506560000000    -0.214453   
N12      N      0.732400000000     0.826090000000     0.510230000000    -0.229902   
N13      N      0.228440000000     0.331150000000     0.511010000000    -0.20916    
N14      N      0.326290000000     0.232850000000     0.515740000000    -0.232591   
N15      N      0.233480000000     0.733030000000     0.526880000000    -0.22149    
N16      N      0.330540000000     0.830580000000     0.532770000000    -0.216262   
N17      N      0.830740000000     0.551020000000     0.328760000000    -0.227975   
N18      N      0.734310000000     0.537990000000     0.231110000000    -0.236067   
N19      N      0.235140000000     0.499520000000     0.332900000000    -0.219998   
N20      N      0.332820000000     0.499430000000     0.234110000000    -0.244848   
N21      N      0.228360000000     0.513850000000     0.732770000000    -0.204759   
N22      N      0.326420000000     0.511750000000     0.829850000000    -0.23545    
N23      N      0.827660000000     0.534660000000     0.731220000000    -0.208999   
N24      N      0.728940000000     0.537070000000     0.828890000000    -0.212332   
N25      N      0.824810000000     0.833370000000     0.022490000000    -0.211931   
N26      N      0.726210000000     0.735020000000     0.021300000000    -0.204525   
N27      N      0.831940000000     0.235750000000     0.042590000000    -0.236523   
N28      N      0.735810000000     0.333640000000     0.039880000000    -0.236109   
N29      N      0.226700000000     0.824960000000     0.049890000000    -0.237484   
N30      N      0.324270000000     0.728570000000     0.047500000000    -0.227444   
N31      N      0.234360000000     0.227550000000     0.057980000000    -0.23798    
N32      N      0.332630000000     0.326320000000     0.058520000000    -0.242048   
N33      N      0.831630000000     0.031070000000     0.830510000000    -0.208228   
N34      N      0.733630000000     0.034920000000     0.733190000000    -0.225301   
N35      N      0.233720000000     0.030890000000     0.829020000000    -0.225499   
N36      N      0.331750000000     0.026470000000     0.731690000000    -0.207742   
N37      N      0.227970000000     0.048630000000     0.232490000000    -0.247902   
N38      N      0.324860000000     0.043170000000     0.330740000000    -0.232324   
N39      N      0.824790000000     0.048300000000     0.231480000000    -0.231839   
N40      N      0.727980000000     0.053820000000     0.329920000000    -0.248077   
N41      N      0.046110000000     0.231620000000     0.827860000000    -0.227438   
N42      N      0.043170000000     0.329480000000     0.730870000000    -0.205802   
N43      N      0.022290000000     0.829170000000     0.831500000000    -0.205203   
N44      N      0.023410000000     0.730050000000     0.733690000000    -0.20765    
N45      N      0.016020000000     0.827510000000     0.233190000000    -0.23428    
N46      N      0.006780000000     0.730950000000     0.331140000000    -0.22831    
N47      N      0.060760000000     0.229200000000     0.232120000000    -0.244377   
N48      N      0.061960000000     0.326670000000     0.331050000000    -0.219558   
O1       O      0.050470000000     0.201230000000     0.120160000000    -1.05131    
O2       O      0.025430000000     0.855180000000     0.121510000000    -0.792862   
O3       O      0.936220000000     0.038100000000     0.202500000000    -1.0256     
O4       O      0.116970000000     0.041160000000     0.202580000000    -1.08997    
O5       O      0.200080000000     0.043290000000     0.120900000000    -1.07759    
O6       O      0.853430000000     0.041050000000     0.119610000000    -0.790672   
O7       O      0.022980000000     0.938930000000     0.203510000000    -1.02994    
O8       O      0.045960000000     0.118650000000     0.202220000000    -1.0815     
O9       O      0.098920000000     0.965300000000     0.103220000000    -2.09695    
O10      O      0.967160000000     0.103800000000     0.101480000000    -2.11174    
O11      O      0.955280000000     0.960680000000     0.105630000000    -0.872831   
O12      O      0.044050000000     0.044400000000     0.044920000000    -2.58826    
O13      O      0.023010000000     0.859030000000     0.943930000000    -0.704434   
O14      O      0.041490000000     0.202560000000     0.939610000000    -0.945968   
O15      O      0.855420000000     0.945680000000     0.027850000000    -0.728396   
O16      O      0.199580000000     0.936270000000     0.042240000000    -0.97762    
O17      O      0.203570000000     0.115990000000     0.047400000000    -1.03717    
O18      O      0.858640000000     0.123990000000     0.039500000000    -0.783778   
O19      O      0.943730000000     0.031800000000     0.859260000000    -0.587807   
O20      O      0.121810000000     0.032450000000     0.857140000000    -0.629374   
O21      O      0.860040000000     0.030550000000     0.942560000000    -0.724388   
O22      O      0.203550000000     0.031130000000     0.940940000000    -0.936296   
O23      O      0.937460000000     0.860580000000     0.027290000000    -0.730901   
O24      O      0.943030000000     0.205130000000     0.037860000000    -0.968815   
O25      O      0.122540000000     0.199850000000     0.047770000000    -1.05319    
O26      O      0.115360000000     0.854980000000     0.044180000000    -0.77576    
O27      O      0.028530000000     0.941710000000     0.859840000000    -0.577738   
O28      O      0.040290000000     0.120030000000     0.856510000000    -0.628353   
O29      O      0.102940000000     0.099470000000     0.968390000000    -2.01201    
O30      O      0.968470000000     0.971310000000     0.969370000000    -1.60369    
O31      O      0.959750000000     0.100960000000     0.958720000000    -1.23629    
O32      O      0.097800000000     0.955900000000     0.960410000000    -1.23637    
O33      O      0.045660000000     0.356240000000     0.441760000000    -0.767626   
O34      O      0.015360000000     0.701910000000     0.442150000000    -0.871098   
O35      O      0.941670000000     0.547850000000     0.358540000000    -0.977037   
O36      O      0.123570000000     0.507510000000     0.360990000000    -0.936806   
O37      O      0.204650000000     0.515790000000     0.443530000000    -0.775853   
O38      O      0.858980000000     0.545020000000     0.440020000000    -0.877623   
O39      O      0.012200000000     0.619990000000     0.359970000000    -0.98399    
O40      O      0.054160000000     0.438120000000     0.360030000000    -0.929813   
O41      O      0.101260000000     0.599880000000     0.453100000000    -1.69606    
O42      O      0.960970000000     0.459520000000     0.451250000000    -1.69678    
O43      O      0.017800000000     0.541870000000     0.513560000000    -2.50547    
O44      O      0.043210000000     0.516570000000     0.513000000000     0.421169   
O45      O      0.030010000000     0.699960000000     0.621550000000    -0.750685   
O46      O      0.035860000000     0.358840000000     0.619260000000    -0.696419   
O47      O      0.860290000000     0.616280000000     0.512680000000    -0.821764   
O48      O      0.204380000000     0.621460000000     0.524020000000    -0.760673   
O49      O      0.199470000000     0.442890000000     0.516890000000    -0.7369     
O50      O      0.856490000000     0.436910000000     0.521470000000    -0.829171   
O51      O      0.940010000000     0.532880000000     0.703360000000    -0.603922   
O52      O      0.116720000000     0.522570000000     0.704080000000    -0.597888   
O53      O      0.858380000000     0.527850000000     0.619300000000    -0.761784   
O54      O      0.199700000000     0.521570000000     0.621060000000    -0.699983   
O55      O      0.942770000000     0.698990000000     0.513920000000    -0.813561   
O56      O      0.938630000000     0.355130000000     0.516760000000    -0.75297    
O57      O      0.116740000000     0.360250000000     0.516000000000    -0.730713   
O58      O      0.122180000000     0.703240000000     0.528370000000    -0.824079   
O59      O      0.024750000000     0.617570000000     0.704800000000    -0.5975     
O60      O      0.034760000000     0.441030000000     0.703020000000    -0.603423   
O61      O      0.096340000000     0.462470000000     0.591150000000    -1.4976     
O62      O      0.961780000000     0.596720000000     0.591050000000    -1.56218    
O63      O      0.953150000000     0.459270000000     0.602370000000    -1.25407    
O64      O      0.098990000000     0.605220000000     0.604340000000    -1.24032    
O65      O      0.700320000000     0.045980000000     0.441460000000    -1.0681     
O66      O      0.353560000000     0.037280000000     0.442590000000    -0.786832   
O67      O      0.527310000000     0.940240000000     0.358670000000    -1.04986    
O68      O      0.539210000000     0.120940000000     0.360410000000    -1.08302    
O69      O      0.541130000000     0.202960000000     0.443090000000    -1.07061    
O70      O      0.531870000000     0.856150000000     0.440280000000    -0.80607    
O71      O      0.436410000000     0.034580000000     0.359730000000    -1.02626    
O72      O      0.617000000000     0.045920000000     0.359990000000    -1.10635    
O73      O      0.465580000000     0.102390000000     0.461020000000    -2.14917    
O74      O      0.600820000000     0.966810000000     0.458510000000    -2.1096     
O75      O      0.457510000000     0.959470000000     0.456350000000    -0.875636   
O76      O      0.543940000000     0.044380000000     0.517380000000    -2.6013     
O77      O      0.360190000000     0.026730000000     0.619610000000    -0.721529   
O78      O      0.703630000000     0.034390000000     0.621290000000    -0.937559   
O79      O      0.442340000000     0.859000000000     0.532190000000    -0.747156   
O80      O      0.438200000000     0.203490000000     0.524860000000    -0.954927   
O81      O      0.618210000000     0.200410000000     0.514430000000    -1.09615    
O82      O      0.620220000000     0.855660000000     0.517370000000    -0.757749   
O83      O      0.530300000000     0.940960000000     0.701960000000    -0.572753   
O84      O      0.537990000000     0.119120000000     0.705610000000    -0.629447   
O85      O      0.527440000000     0.858300000000     0.617750000000    -0.704894   
O86      O      0.537110000000     0.201760000000     0.622670000000    -0.980562   
O87      O      0.358660000000     0.942590000000     0.532820000000    -0.744597   
O88      O      0.703180000000     0.938060000000     0.519970000000    -0.941646   
O89      O      0.700720000000     0.117870000000     0.514470000000    -1.06933    
O90      O      0.355510000000     0.120800000000     0.521800000000    -0.758793   
O91      O      0.443850000000     0.028660000000     0.702910000000    -0.58109    
O92      O      0.621750000000     0.034080000000     0.704970000000    -0.62293    
O93      O      0.601440000000     0.100350000000     0.593710000000    -2.00559    
O94      O      0.470000000000     0.969420000000     0.592320000000    -1.59209    
O95      O      0.599730000000     0.956590000000     0.601760000000    -1.2468     
O96      O      0.457960000000     0.098890000000     0.603800000000    -1.24123    
O97      O      0.359890000000     0.438260000000     0.049130000000    -1.06408    
O98      O      0.706640000000     0.445160000000     0.036320000000    -0.786152   
O99      O      0.532850000000     0.358520000000     0.941010000000    -1.03593    
O100     O      0.523380000000     0.360180000000     0.121920000000    -1.08751    
O101     O      0.523010000000     0.442690000000     0.204110000000    -1.09944    
O102     O      0.527130000000     0.439990000000     0.856860000000    -0.803408   
O103     O      0.624540000000     0.361520000000     0.033860000000    -1.03702    
O104     O      0.443980000000     0.357730000000     0.047630000000    -1.07234    
O105     O      0.595950000000     0.462100000000     0.102600000000    -2.141      
O106     O      0.458980000000     0.457500000000     0.968390000000    -2.10814    
O107     O      0.602250000000     0.457180000000     0.959620000000    -0.867006   
O108     O      0.515640000000     0.516820000000     0.045580000000    -2.60942    
O109     O      0.698450000000     0.622390000000     0.023580000000    -0.7004     
O110     O      0.354930000000     0.617510000000     0.040840000000    -0.957167   
O111     O      0.616500000000     0.533150000000     0.858150000000    -0.729577   
O112     O      0.622760000000     0.531870000000     0.202720000000    -0.994262   
O113     O      0.443580000000     0.512660000000     0.203630000000    -1.1097     
O114     O      0.438310000000     0.516960000000     0.858110000000    -0.772761   
O115     O      0.525170000000     0.701670000000     0.941500000000    -0.574415   
O116     O      0.520820000000     0.705360000000     0.119620000000    -0.628359   
O117     O      0.529340000000     0.617480000000     0.858900000000    -0.705967   
O118     O      0.520870000000     0.622430000000     0.202320000000    -0.997407   
O119     O      0.700640000000     0.535310000000     0.941270000000    -0.727948   
O120     O      0.356050000000     0.518860000000     0.941420000000    -0.963752   
O121     O      0.360110000000     0.510100000000     0.122110000000    -1.06193    
O122     O      0.704960000000     0.529900000000     0.119440000000    -0.763525   
O123     O      0.613910000000     0.704630000000     0.027450000000    -0.56843    
O124     O      0.435690000000     0.702280000000     0.038360000000    -0.62826    
O125     O      0.458210000000     0.592430000000     0.101910000000    -2.04251    
O126     O      0.588180000000     0.593150000000     0.969220000000    -1.59247    
O127     O      0.457920000000     0.600340000000     0.958530000000    -1.22848    
O128     O      0.601050000000     0.605000000000     0.098550000000    -1.2084     
Tb1      Tb     0.027240000000     0.029590000000     0.143240000000     6.47223    
Tb2      Tb     0.028870000000     0.919360000000     0.035310000000     4.32473    
Tb3      Tb     0.031740000000     0.142990000000     0.030280000000     6.34625    
Tb4      Tb     0.918780000000     0.034900000000     0.034080000000     4.361      
Tb5      Tb     0.142180000000     0.027110000000     0.031360000000     6.34678    
Tb6      Tb     0.034100000000     0.032950000000     0.919910000000     3.15618    
Tb7      Tb     0.031940000000     0.529220000000     0.414840000000     5.47717    
Tb8      Tb     0.033660000000     0.641050000000     0.528770000000     4.58857    
Tb9      Tb     0.025760000000     0.418190000000     0.528240000000     4.11449    
Tb10     Tb     0.918420000000     0.525590000000     0.527230000000     4.65142    
Tb11     Tb     0.141410000000     0.533800000000     0.529710000000     4.1724     
Tb12     Tb     0.028680000000     0.529400000000     0.641370000000     3.12335    
Tb13     Tb     0.527690000000     0.030160000000     0.419030000000     6.51839    
Tb14     Tb     0.418890000000     0.032680000000     0.528090000000     4.33859    
Tb15     Tb     0.642520000000     0.028520000000     0.530900000000     6.32929    
Tb16     Tb     0.532120000000     0.919230000000     0.526500000000     4.34513    
Tb17     Tb     0.528790000000     0.142650000000     0.532400000000     6.49101    
Tb18     Tb     0.534100000000     0.032300000000     0.642150000000     3.10582    
Tb19     Tb     0.532970000000     0.418930000000     0.031120000000     6.44694    
Tb20     Tb     0.640760000000     0.529900000000     0.032020000000     4.26363    
Tb21     Tb     0.416910000000     0.528700000000     0.031260000000     6.39475    
Tb22     Tb     0.526650000000     0.526280000000     0.920010000000     4.33952    
Tb23     Tb     0.531730000000     0.532340000000     0.143520000000     6.70436    
Tb24     Tb     0.524160000000     0.641910000000     0.032910000000     3.09491    


