data_structure

_audit_creation_method RASPA-1.0
_audit_creation_date 2023-5-19
_audit_author_name 'Poobodin Mano'

_cell_length_a    20.5331
_cell_length_b    20.5418
_cell_length_c    20.5432
_cell_angle_alpha 90
_cell_angle_beta  90
_cell_angle_gamma 90
_cell_volume      8664.85

_symmetry_cell_setting          triclinic
_symmetry_space_group_name_Hall 'P 1'
_symmetry_space_group_name_H-M  'P 1'
_symmetry_Int_Tables_number     1

_symmetry_equiv_pos_as_xyz 'x,y,z'

loop_
_atom_site_label
_atom_site_type_symbol
_atom_site_fract_x
_atom_site_fract_y
_atom_site_fract_z
_atom_site_charge
C1       C      0.042700000000     0.171690000000     0.170820000000     0.664867   
C2       C      0.022530000000     0.869880000000     0.172170000000     0.632243   
C3       C      0.867450000000     0.031780000000     0.172200000000     0.617773   
C4       C      0.169920000000     0.038150000000     0.170520000000     0.686204   
C5       C      0.014240000000     0.872160000000     0.872580000000     0.500552   
C6       C      0.033580000000     0.171790000000     0.869540000000     0.608232   
C7       C      0.868650000000     0.874700000000     0.017540000000     0.523536   
C8       C      0.168640000000     0.867850000000     0.034950000000     0.651126   
C9       C      0.173330000000     0.169000000000     0.041710000000     0.655184   
C10      C      0.872000000000     0.175060000000     0.031370000000     0.647031   
C11      C      0.872530000000     0.021250000000     0.873000000000     0.512657   
C12      C      0.172590000000     0.025070000000     0.869060000000     0.599148   
C13      C      0.042520000000     0.371570000000     0.372270000000     0.663383   
C14      C      0.026560000000     0.673930000000     0.371940000000     0.62962    
C15      C      0.870720000000     0.516080000000     0.369420000000     0.63118    
C16      C      0.172990000000     0.502090000000     0.374260000000     0.665664   
C17      C      0.014330000000     0.670220000000     0.671400000000     0.49954    
C18      C      0.029390000000     0.370360000000     0.673030000000     0.609084   
C19      C      0.871290000000     0.669840000000     0.521400000000     0.528349   
C20      C      0.171740000000     0.674160000000     0.515630000000     0.638741   
C21      C      0.169980000000     0.372660000000     0.503020000000     0.6743     
C22      C      0.868750000000     0.370020000000     0.506610000000     0.633527   
C23      C      0.869890000000     0.525750000000     0.668990000000     0.504554   
C24      C      0.169850000000     0.510210000000     0.675110000000     0.608497   
C25      C      0.669680000000     0.039950000000     0.373020000000     0.683639   
C26      C      0.367300000000     0.029080000000     0.371250000000     0.621206   
C27      C      0.521980000000     0.869710000000     0.371580000000     0.634958   
C28      C      0.533440000000     0.172310000000     0.372170000000     0.679192   
C29      C      0.372330000000     0.018870000000     0.670410000000     0.514759   
C30      C      0.672210000000     0.028510000000     0.674440000000     0.594027   
C31      C      0.371040000000     0.873400000000     0.523810000000     0.532872   
C32      C      0.368510000000     0.173190000000     0.509070000000     0.638893   
C33      C      0.669730000000     0.170460000000     0.501540000000     0.672681   
C34      C      0.671380000000     0.868990000000     0.512770000000     0.635144   
C35      C      0.516900000000     0.872650000000     0.670990000000     0.503347   
C36      C      0.528740000000     0.172690000000     0.673540000000     0.609472   
C37      C      0.373680000000     0.370260000000     0.043030000000     0.669057   
C38      C      0.675820000000     0.374620000000     0.025300000000     0.635185   
C39      C      0.519720000000     0.371950000000     0.869380000000     0.636044   
C40      C      0.512490000000     0.372410000000     0.172170000000     0.68575    
C41      C      0.667520000000     0.673900000000     0.015180000000     0.503212   
C42      C      0.367610000000     0.671250000000     0.033650000000     0.604663   
C43      C      0.668790000000     0.527910000000     0.869930000000     0.52354    
C44      C      0.674620000000     0.514030000000     0.169950000000     0.657929   
C45      C      0.373390000000     0.499810000000     0.173170000000     0.663952   
C46      C      0.368790000000     0.507730000000     0.871900000000     0.649365   
C47      C      0.519500000000     0.671410000000     0.872150000000     0.502528   
C48      C      0.512670000000     0.674000000000     0.172220000000     0.614183   
C49      C      0.527150000000     0.206740000000     0.254490000000     0.0153931  
C50      C      0.530910000000     0.223620000000     0.320810000000    -0.161531   
C51      C      0.527230000000     0.289950000000     0.337710000000     0.0158141  
C52      C      0.519770000000     0.337930000000     0.289760000000     0.0178839  
C53      C      0.515880000000     0.321050000000     0.223450000000    -0.164841   
C54      C      0.519740000000     0.254740000000     0.206530000000     0.0170767  
C55      C      0.519630000000     0.753420000000     0.337310000000     0.0125127  
C56      C      0.519480000000     0.819670000000     0.320600000000    -0.157851   
C57      C      0.515490000000     0.837710000000     0.254760000000     0.0257211  
C58      C      0.512190000000     0.790340000000     0.206490000000     0.00320543 
C59      C      0.512890000000     0.724090000000     0.223190000000    -0.144885   
C60      C      0.516300000000     0.706070000000     0.289050000000     0.0200432  
C61      C      0.518340000000     0.706150000000     0.754010000000     0.00463467 
C62      C      0.518960000000     0.722810000000     0.820520000000    -0.108927   
C63      C      0.518200000000     0.789330000000     0.837170000000     0.00273213 
C64      C      0.517000000000     0.837630000000     0.788890000000     0.00299608 
C65      C      0.516470000000     0.821010000000     0.722370000000    -0.109124   
C66      C      0.517050000000     0.754490000000     0.705690000000     0.00488768 
C67      C      0.530790000000     0.207000000000     0.789850000000     0.00275127 
C68      C      0.528520000000     0.223670000000     0.723630000000    -0.142793   
C69      C      0.523600000000     0.289460000000     0.705670000000     0.0189846  
C70      C      0.520370000000     0.337670000000     0.753080000000     0.0136486  
C71      C      0.522150000000     0.320990000000     0.819310000000    -0.158122   
C72      C      0.527610000000     0.255230000000     0.837270000000     0.0267224  
C73      C      0.751700000000     0.335940000000     0.496700000000     0.00490074 
C74      C      0.817950000000     0.319030000000     0.500510000000    -0.144598   
C75      C      0.835090000000     0.252740000000     0.499840000000     0.0117509  
C76      C      0.787090000000     0.204540000000     0.497800000000     0.0212658  
C77      C      0.720710000000     0.221410000000     0.496470000000    -0.166112   
C78      C      0.703670000000     0.287730000000     0.494700000000     0.0244239  
C79      C      0.836870000000     0.787110000000     0.519180000000    -0.00681469 
C80      C      0.820040000000     0.720760000000     0.519780000000    -0.114138   
C81      C      0.753740000000     0.703600000000     0.516970000000    -0.00294368 
C82      C      0.705550000000     0.751590000000     0.513770000000     0.0219507  
C83      C      0.722430000000     0.817920000000     0.513370000000    -0.154473   
C84      C      0.788700000000     0.835050000000     0.516000000000     0.0293376  
C85      C      0.203730000000     0.255490000000     0.496290000000     0.02421    
C86      C      0.220880000000     0.321760000000     0.498340000000    -0.16561    
C87      C      0.287220000000     0.338630000000     0.500270000000     0.0211591  
C88      C      0.335130000000     0.290410000000     0.502630000000     0.0127656  
C89      C      0.317860000000     0.224170000000     0.503020000000    -0.146321   
C90      C      0.251660000000     0.207270000000     0.498610000000     0.00567285 
C91      C      0.288890000000     0.708170000000     0.519620000000     0.0298876  
C92      C      0.222630000000     0.725230000000     0.516740000000    -0.156285   
C93      C      0.205570000000     0.791510000000     0.516980000000     0.0224952  
C94      C      0.253630000000     0.839570000000     0.520050000000    -0.00250666 
C95      C      0.319920000000     0.822490000000     0.522880000000    -0.115924   
C96      C      0.336930000000     0.756180000000     0.522660000000    -0.00611712 
C97      C      0.838980000000     0.515170000000     0.252060000000     0.018594   
C98      C      0.821000000000     0.513480000000     0.318040000000    -0.152497   
C99      C      0.754800000000     0.509690000000     0.334670000000     0.00822036 
C100     C      0.707430000000     0.508860000000     0.286380000000     0.0266515  
C101     C      0.725250000000     0.511790000000     0.220440000000    -0.158598   
C102     C      0.791480000000     0.514290000000     0.203640000000     0.0139396  
C103     C      0.207800000000     0.491030000000     0.256900000000     0.0142364  
C104     C      0.224540000000     0.495200000000     0.323260000000    -0.159877   
C105     C      0.291100000000     0.495910000000     0.339850000000     0.0146254  
C106     C      0.339380000000     0.495200000000     0.291420000000     0.0139232  
C107     C      0.322530000000     0.493690000000     0.224960000000    -0.158183   
C108     C      0.256010000000     0.490280000000     0.208530000000     0.0136798  
C109     C      0.286430000000     0.502550000000     0.708030000000     0.0180938  
C110     C      0.220400000000     0.505750000000     0.725650000000    -0.140908   
C111     C      0.203400000000     0.506170000000     0.791850000000     0.00243571 
C112     C      0.251640000000     0.505360000000     0.839510000000     0.0285618  
C113     C      0.317730000000     0.504080000000     0.821820000000    -0.157268   
C114     C      0.334610000000     0.501700000000     0.755640000000     0.0157638  
C115     C      0.834690000000     0.530410000000     0.786520000000    -0.000538655
C116     C      0.818060000000     0.528570000000     0.720030000000    -0.109002   
C117     C      0.751540000000     0.528460000000     0.703290000000     0.00254395 
C118     C      0.703170000000     0.529090000000     0.751640000000     0.00603274 
C119     C      0.719920000000     0.529930000000     0.818140000000    -0.118677   
C120     C      0.786430000000     0.531100000000     0.834760000000     0.00811662 
C121     C      0.750300000000     0.840460000000     0.016360000000     0.00744705 
C122     C      0.816800000000     0.823710000000     0.014580000000    -0.119304   
C123     C      0.833380000000     0.757280000000     0.011060000000     0.00647065 
C124     C      0.785100000000     0.709070000000     0.010350000000     0.0026427  
C125     C      0.718630000000     0.725670000000     0.013210000000    -0.10899    
C126     C      0.701920000000     0.792150000000     0.015710000000    -0.00135704 
C127     C      0.840110000000     0.292350000000     0.030160000000     0.0229646  
C128     C      0.822130000000     0.226390000000     0.032770000000    -0.154826   
C129     C      0.755840000000     0.209780000000     0.034480000000     0.0117609  
C130     C      0.708430000000     0.258060000000     0.032360000000     0.021598   
C131     C      0.726310000000     0.323970000000     0.028610000000    -0.154199   
C132     C      0.792600000000     0.340730000000     0.028130000000     0.00981087 
C133     C      0.201910000000     0.750870000000     0.036290000000     0.0161189  
C134     C      0.218890000000     0.817030000000     0.039010000000    -0.158245   
C135     C      0.284870000000     0.834550000000     0.043290000000     0.0300359  
C136     C      0.333050000000     0.787030000000     0.042810000000     0.00130742 
C137     C      0.316280000000     0.720960000000     0.038020000000    -0.140401   
C138     C      0.250220000000     0.703210000000     0.035780000000     0.0163944  
C139     C      0.208430000000     0.286130000000     0.053960000000     0.0114272  
C140     C      0.225090000000     0.219840000000     0.048440000000    -0.154211   
C141     C      0.291640000000     0.203330000000     0.045990000000     0.0115864  
C142     C      0.339910000000     0.251820000000     0.046380000000     0.0161282  
C143     C      0.323050000000     0.318240000000     0.049260000000    -0.162866   
C144     C      0.256610000000     0.334530000000     0.054380000000     0.0164811  
C145     C      0.755010000000     0.023900000000     0.839450000000     0.00130275 
C146     C      0.821280000000     0.022420000000     0.822150000000    -0.109083   
C147     C      0.838020000000     0.023690000000     0.755780000000    -0.0077288  
C148     C      0.789730000000     0.026380000000     0.707920000000     0.0271256  
C149     C      0.723480000000     0.027820000000     0.725230000000    -0.142744   
C150     C      0.706730000000     0.026620000000     0.791590000000     0.0146347  
C151     C      0.289940000000     0.022460000000     0.835520000000     0.0280375  
C152     C      0.223710000000     0.023910000000     0.818270000000    -0.144869   
C153     C      0.206780000000     0.022790000000     0.751960000000     0.0156299  
C154     C      0.254940000000     0.020380000000     0.704030000000     0.00141408 
C155     C      0.321200000000     0.019160000000     0.721250000000    -0.110259   
C156     C      0.338110000000     0.020100000000     0.787580000000    -0.00762011 
C157     C      0.203060000000     0.043020000000     0.287940000000     0.0272596  
C158     C      0.220580000000     0.041240000000     0.221780000000    -0.17261    
C159     C      0.286970000000     0.037990000000     0.205300000000     0.0244364  
C160     C      0.334540000000     0.034570000000     0.253780000000     0.00801848 
C161     C      0.316900000000     0.034430000000     0.319920000000    -0.143739   
C162     C      0.250650000000     0.039650000000     0.336440000000     0.00141346 
C163     C      0.750600000000     0.041580000000     0.207000000000     0.00114848 
C164     C      0.816930000000     0.037350000000     0.223520000000    -0.143397   
C165     C      0.834490000000     0.038250000000     0.289700000000     0.00759673 
C166     C      0.786830000000     0.041360000000     0.338170000000     0.0240419  
C167     C      0.720380000000     0.043530000000     0.321700000000    -0.172675   
C168     C      0.702920000000     0.044630000000     0.255480000000     0.0269978  
C169     C      0.037290000000     0.288500000000     0.836890000000     0.0230735  
C170     C      0.036400000000     0.222470000000     0.819210000000    -0.14473    
C171     C      0.035880000000     0.205430000000     0.753030000000     0.00616705 
C172     C      0.034510000000     0.253570000000     0.705420000000     0.0231184  
C173     C      0.033650000000     0.319590000000     0.723160000000    -0.145072   
C174     C      0.035930000000     0.336620000000     0.789300000000     0.00636655 
C175     C      0.012260000000     0.836870000000     0.754530000000     0.000742991
C176     C      0.011820000000     0.820420000000     0.821140000000    -0.107991   
C177     C      0.010430000000     0.753900000000     0.837820000000     0.00555036 
C178     C      0.010510000000     0.705450000000     0.789510000000     0.000509403
C179     C      0.011880000000     0.721900000000     0.722910000000    -0.1079     
C180     C      0.012240000000     0.788430000000     0.706240000000     0.00555254 
C181     C      0.024030000000     0.837810000000     0.289260000000     0.0206726  
C182     C      0.024490000000     0.819840000000     0.223290000000    -0.155151   
C183     C      0.026930000000     0.753600000000     0.206620000000     0.0102163  
C184     C      0.028200000000     0.706210000000     0.254990000000     0.0203988  
C185     C      0.027120000000     0.724140000000     0.320970000000    -0.15461    
C186     C      0.025370000000     0.790410000000     0.337650000000     0.00941199 
C187     C      0.051470000000     0.289300000000     0.205890000000     0.0142617  
C188     C      0.049360000000     0.222760000000     0.222300000000    -0.159512   
C189     C      0.049950000000     0.205800000000     0.288750000000     0.0143137  
C190     C      0.049910000000     0.253920000000     0.337240000000     0.0140239  
C191     C      0.049240000000     0.320490000000     0.320820000000    -0.158675   
C192     C      0.051400000000     0.337430000000     0.254400000000     0.0136228  
H1       H      0.973480000000     0.976410000000     0.070510000000    -1.24112    
H2       H      0.060820000000     0.060480000000     0.060780000000    -1.09545    
H3       H      0.964630000000     0.132750000000     0.963350000000    -0.539754   
H4       H      0.130060000000     0.960770000000     0.964380000000    -0.552613   
H5       H      0.975450000000     0.567280000000     0.472640000000    -1.21537    
H6       H      0.060740000000     0.482120000000     0.483000000000    -1.09684    
H7       H      0.961110000000     0.410700000000     0.578590000000    -0.54176    
H8       H      0.130140000000     0.579700000000     0.581480000000    -0.557237   
H9       H      0.474100000000     0.975850000000     0.473220000000    -1.24094    
H10      H      0.559830000000     0.061060000000     0.482740000000    -1.09109    
H11      H      0.630470000000     0.962880000000     0.579720000000    -0.543914   
H12      H      0.461550000000     0.132220000000     0.579540000000    -0.551314   
H13      H      0.567420000000     0.474340000000     0.974850000000    -1.23733    
H14      H      0.482660000000     0.482280000000     0.061510000000    -1.12378    
H15      H      0.408990000000     0.578070000000     0.964410000000    -0.548872   
H16      H      0.579930000000     0.580890000000     0.130540000000    -0.583217   
H17      H      0.529330000000     0.156270000000     0.239380000000     0.0306989  
H18      H      0.529450000000     0.305050000000     0.388170000000     0.0326111  
H19      H      0.517510000000     0.388390000000     0.304890000000     0.0318693  
H20      H      0.517420000000     0.239650000000     0.156060000000     0.0302178  
H21      H      0.522360000000     0.737880000000     0.387630000000     0.0361605  
H22      H      0.514960000000     0.888400000000     0.240240000000     0.0280085  
H23      H      0.509570000000     0.805830000000     0.156150000000     0.038046   
H24      H      0.517000000000     0.655390000000     0.303580000000     0.0312142  
H25      H      0.518770000000     0.655620000000     0.738980000000     0.0398085  
H26      H      0.518580000000     0.804410000000     0.887680000000     0.0413505  
H27      H      0.516660000000     0.888150000000     0.803980000000     0.041232   
H28      H      0.516820000000     0.739480000000     0.655150000000     0.0397383  
H29      H      0.534640000000     0.156720000000     0.805270000000     0.0389314  
H30      H      0.521570000000     0.303950000000     0.655020000000     0.0318241  
H31      H      0.516370000000     0.387920000000     0.737600000000     0.0361949  
H32      H      0.529450000000     0.240750000000     0.887940000000     0.0281833  
H33      H      0.736630000000     0.386470000000     0.496460000000     0.037357   
H34      H      0.885630000000     0.237800000000     0.502120000000     0.0317928  
H35      H      0.802190000000     0.154030000000     0.498870000000     0.0323241  
H36      H      0.653100000000     0.302680000000     0.493290000000     0.0320747  
H37      H      0.887350000000     0.802310000000     0.521070000000     0.0415262  
H38      H      0.738800000000     0.653030000000     0.517110000000     0.0410317  
H39      H      0.655030000000     0.736500000000     0.511990000000     0.0341677  
H40      H      0.803650000000     0.885610000000     0.515970000000     0.028868   
H41      H      0.153170000000     0.240590000000     0.494340000000     0.0324694  
H42      H      0.302360000000     0.389120000000     0.501560000000     0.0325809  
H43      H      0.385660000000     0.305310000000     0.505310000000     0.0316506  
H44      H      0.236560000000     0.156750000000     0.498050000000     0.0372041  
H45      H      0.303920000000     0.657630000000     0.519730000000     0.0280577  
H46      H      0.155040000000     0.806500000000     0.515010000000     0.0343065  
H47      H      0.238610000000     0.890100000000     0.519920000000     0.0409272  
H48      H      0.387420000000     0.741070000000     0.524620000000     0.0412936  
H49      H      0.889650000000     0.517770000000     0.237630000000     0.0294871  
H50      H      0.739240000000     0.507860000000     0.385020000000     0.0378206  
H51      H      0.656820000000     0.506500000000     0.301060000000     0.0295561  
H52      H      0.806750000000     0.516390000000     0.153210000000     0.035132   
H53      H      0.157230000000     0.489760000000     0.241950000000     0.0314535  
H54      H      0.306150000000     0.498650000000     0.390300000000     0.032566   
H55      H      0.389940000000     0.497500000000     0.306250000000     0.0324684  
H56      H      0.240820000000     0.488560000000     0.158080000000     0.0329974  
H57      H      0.301240000000     0.501630000000     0.657430000000     0.0324487  
H58      H      0.152930000000     0.508150000000     0.807050000000     0.0391088  
H59      H      0.236960000000     0.506860000000     0.890130000000     0.0293497  
H60      H      0.385070000000     0.500240000000     0.740330000000     0.0360767  
H61      H      0.885210000000     0.530870000000     0.801670000000     0.0416916  
H62      H      0.736600000000     0.527240000000     0.652750000000     0.0395241  
H63      H      0.652600000000     0.528290000000     0.736690000000     0.0383267  
H64      H      0.801600000000     0.531950000000     0.885240000000     0.0387851  
H65      H      0.735390000000     0.890970000000     0.018930000000     0.0376019  
H66      H      0.883870000000     0.742140000000     0.009290000000     0.0388984  
H67      H      0.800200000000     0.658600000000     0.008160000000     0.0401027  
H68      H      0.651380000000     0.807080000000     0.017820000000     0.0407042  
H69      H      0.890830000000     0.306780000000     0.028930000000     0.0300643  
H70      H      0.740290000000     0.159440000000     0.036750000000     0.0362369  
H71      H      0.657760000000     0.243410000000     0.033340000000     0.0293219  
H72      H      0.807980000000     0.391110000000     0.025610000000     0.0365408  
H73      H      0.151450000000     0.735790000000     0.033260000000     0.0347355  
H74      H      0.299680000000     0.885090000000     0.046090000000     0.0291912  
H75      H      0.383460000000     0.802380000000     0.045310000000     0.0395666  
H76      H      0.235690000000     0.652630000000     0.032430000000     0.0320822  
H77      H      0.157910000000     0.301050000000     0.056580000000     0.0341848  
H78      H      0.306630000000     0.152930000000     0.042090000000     0.0330133  
H79      H      0.390430000000     0.237100000000     0.042730000000     0.0298006  
H80      H      0.241420000000     0.384940000000     0.057240000000     0.0324645  
H81      H      0.740150000000     0.023160000000     0.890030000000     0.0413082  
H82      H      0.888500000000     0.022730000000     0.740520000000     0.0427477  
H83      H      0.804530000000     0.027040000000     0.657320000000     0.0299826  
H84      H      0.656230000000     0.027520000000     0.806820000000     0.0367087  
H85      H      0.304830000000     0.023060000000     0.886090000000     0.029654   
H86      H      0.156260000000     0.023700000000     0.736810000000     0.0366174  
H87      H      0.240000000000     0.019850000000     0.653470000000     0.0408203  
H88      H      0.388620000000     0.019260000000     0.802760000000     0.0427406  
H89      H      0.152450000000     0.045830000000     0.302540000000     0.0292129  
H90      H      0.302380000000     0.036670000000     0.154890000000     0.0308729  
H91      H      0.385110000000     0.031220000000     0.239160000000     0.0309077  
H92      H      0.235250000000     0.040420000000     0.386860000000     0.0379406  
H93      H      0.735200000000     0.041660000000     0.156570000000     0.0377512  
H94      H      0.885090000000     0.035660000000     0.304350000000     0.0305625  
H95      H      0.802240000000     0.040630000000     0.388590000000     0.0308059  
H96      H      0.652280000000     0.046540000000     0.240840000000     0.0288396  
H97      H      0.038040000000     0.303280000000     0.887500000000     0.0311035  
H98      H      0.035530000000     0.154950000000     0.737780000000     0.0383422  
H99      H      0.033240000000     0.238820000000     0.654810000000     0.0309259  
H100     H      0.035890000000     0.387090000000     0.804590000000     0.0384658  
H101     H      0.013150000000     0.887350000000     0.739380000000     0.0411383  
H102     H      0.009910000000     0.738960000000     0.888370000000     0.0394707  
H103     H      0.009970000000     0.654950000000     0.804630000000     0.0405806  
H104     H      0.013170000000     0.803410000000     0.655700000000     0.0396561  
H105     H      0.022360000000     0.888480000000     0.303780000000     0.0284212  
H106     H      0.027630000000     0.738080000000     0.156240000000     0.0367043  
H107     H      0.029730000000     0.655550000000     0.240430000000     0.0284983  
H108     H      0.024530000000     0.805870000000     0.388060000000     0.0362716  
H109     H      0.051540000000     0.304520000000     0.155420000000     0.0323074  
H110     H      0.048860000000     0.155220000000     0.303580000000     0.0312175  
H111     H      0.048770000000     0.238680000000     0.387700000000     0.0329384  
H112     H      0.051450000000     0.388030000000     0.239590000000     0.0311816  
O1       O      0.039780000000     0.190940000000     0.108700000000    -1.04026    
O2       O      0.022540000000     0.849860000000     0.110110000000    -0.782281   
O3       O      0.930050000000     0.027550000000     0.191140000000    -1.00622    
O4       O      0.107860000000     0.034540000000     0.189570000000    -1.0735     
O5       O      0.189580000000     0.034880000000     0.108680000000    -1.06676    
O6       O      0.847940000000     0.031190000000     0.109870000000    -0.772977   
O7       O      0.020560000000     0.932480000000     0.191030000000    -1.02006    
O8       O      0.036620000000     0.109720000000     0.189850000000    -1.05514    
O9       O      0.089820000000     0.958610000000     0.091700000000    -2.08826    
O10      O      0.959390000000     0.093800000000     0.091190000000    -2.0972     
O11      O      0.948860000000     0.952860000000     0.095570000000    -0.864831   
O12      O      0.035360000000     0.035910000000     0.035270000000    -2.57152    
O13      O      0.014110000000     0.853140000000     0.935650000000    -0.687075   
O14      O      0.031860000000     0.191130000000     0.931990000000    -0.944605   
O15      O      0.849920000000     0.937830000000     0.019570000000    -0.715641   
O16      O      0.189000000000     0.929840000000     0.031140000000    -0.966046   
O17      O      0.191660000000     0.106620000000     0.036890000000    -1.0403     
O18      O      0.851760000000     0.113070000000     0.030880000000    -0.763685   
O19      O      0.935160000000     0.022980000000     0.853140000000    -0.572117   
O20      O      0.110280000000     0.024490000000     0.849700000000    -0.615308   
O21      O      0.853020000000     0.021340000000     0.935740000000    -0.702815   
O22      O      0.191460000000     0.023930000000     0.931800000000    -0.935387   
O23      O      0.931170000000     0.854150000000     0.019310000000    -0.719254   
O24      O      0.934710000000     0.193420000000     0.027980000000    -0.955174   
O25      O      0.111470000000     0.189100000000     0.037940000000    -1.04329    
O26      O      0.106030000000     0.849510000000     0.033040000000    -0.759075   
O27      O      0.018550000000     0.934770000000     0.852800000000    -0.56403    
O28      O      0.030060000000     0.109700000000     0.850070000000    -0.620224   
O29      O      0.092150000000     0.090090000000     0.959550000000    -2.00761    
O30      O      0.960510000000     0.963500000000     0.961380000000    -1.58614    
O31      O      0.951290000000     0.090870000000     0.950990000000    -1.21731    
O32      O      0.087900000000     0.948930000000     0.951490000000    -1.22205    
O33      O      0.038000000000     0.352190000000     0.434240000000    -1.03967    
O34      O      0.026620000000     0.693640000000     0.434110000000    -0.775125   
O35      O      0.933490000000     0.519110000000     0.351120000000    -1.00988    
O36      O      0.111080000000     0.506600000000     0.354570000000    -1.05474    
O37      O      0.191570000000     0.506260000000     0.436510000000    -1.04683    
O38      O      0.850110000000     0.515770000000     0.431290000000    -0.782446   
O39      O      0.024430000000     0.611430000000     0.352770000000    -1.01533    
O40      O      0.038060000000     0.433730000000     0.353340000000    -1.04852    
O41      O      0.092480000000     0.584280000000     0.452620000000    -2.09194    
O42      O      0.959320000000     0.450890000000     0.450600000000    -2.09561    
O43      O      0.951660000000     0.591370000000     0.447250000000    -0.865346   
O44      O      0.035290000000     0.507130000000     0.508090000000    -2.5672     
O45      O      0.015140000000     0.689480000000     0.608410000000    -0.68289    
O46      O      0.027880000000     0.351340000000     0.610490000000    -0.94858    
O47      O      0.851650000000     0.607130000000     0.520090000000    -0.725975   
O48      O      0.191060000000     0.611670000000     0.518490000000    -0.954826   
O49      O      0.189420000000     0.434580000000     0.507500000000    -1.06235    
O50      O      0.849680000000     0.432460000000     0.508380000000    -0.753729   
O51      O      0.932310000000     0.522280000000     0.689410000000    -0.57034    
O52      O      0.107540000000     0.513630000000     0.694140000000    -0.617288   
O53      O      0.851310000000     0.525190000000     0.605820000000    -0.692866   
O54      O      0.189590000000     0.512420000000     0.612810000000    -0.951141   
O55      O      0.934000000000     0.689810000000     0.521570000000    -0.715489   
O56      O      0.931200000000     0.350840000000     0.511390000000    -0.94787    
O57      O      0.108020000000     0.353130000000     0.506390000000    -1.05765    
O58      O      0.109190000000     0.692940000000     0.514850000000    -0.750784   
O59      O      0.017690000000     0.607490000000     0.690990000000    -0.565558   
O60      O      0.025860000000     0.432340000000     0.692830000000    -0.622226   
O61      O      0.089490000000     0.451880000000     0.583910000000    -2.00448    
O62      O      0.960540000000     0.580380000000     0.581250000000    -1.58416    
O63      O      0.948520000000     0.452760000000     0.591230000000    -1.23121    
O64      O      0.087970000000     0.592480000000     0.593460000000    -1.21825    
O65      O      0.689340000000     0.036290000000     0.434850000000    -1.05702    
O66      O      0.347700000000     0.028780000000     0.433530000000    -0.77283    
O67      O      0.519880000000     0.932260000000     0.352630000000    -1.02618    
O68      O      0.530900000000     0.110040000000     0.353280000000    -1.05942    
O69      O      0.532740000000     0.191430000000     0.434360000000    -1.0532     
O70      O      0.523900000000     0.849810000000     0.433650000000    -0.786437   
O71      O      0.429920000000     0.025150000000     0.352360000000    -1.00192    
O72      O      0.607610000000     0.036180000000     0.354020000000    -1.08608    
O73      O      0.458090000000     0.092450000000     0.452120000000    -2.12024    
O74      O      0.590890000000     0.959110000000     0.451690000000    -2.08472    
O75      O      0.449840000000     0.951910000000     0.448180000000    -0.868937   
O76      O      0.534690000000     0.036090000000     0.508210000000    -2.57581    
O77      O      0.352780000000     0.018960000000     0.607680000000    -0.707965   
O78      O      0.691070000000     0.027390000000     0.611690000000    -0.924136   
O79      O      0.433690000000     0.853410000000     0.523150000000    -0.726624   
O80      O      0.430970000000     0.192340000000     0.513650000000    -0.949182   
O81      O      0.607770000000     0.189950000000     0.505160000000    -1.07395    
O82      O      0.608770000000     0.850230000000     0.512730000000    -0.754138   
O83      O      0.520060000000     0.935350000000     0.690680000000    -0.561461   
O84      O      0.527120000000     0.110580000000     0.693200000000    -0.619465   
O85      O      0.516570000000     0.853460000000     0.608010000000    -0.691198   
O86      O      0.527050000000     0.191750000000     0.611030000000    -0.958136   
O87      O      0.351340000000     0.936100000000     0.522540000000    -0.730638   
O88      O      0.690700000000     0.931490000000     0.515650000000    -0.94039    
O89      O      0.689180000000     0.108540000000     0.506300000000    -1.05346    
O90      O      0.349380000000     0.110780000000     0.510610000000    -0.754479   
O91      O      0.434860000000     0.021560000000     0.690300000000    -0.573156   
O92      O      0.609870000000     0.027090000000     0.693770000000    -0.609751   
O93      O      0.590530000000     0.091510000000     0.583630000000    -1.9983     
O94      O      0.461150000000     0.962750000000     0.582090000000    -1.58419    
O95      O      0.588460000000     0.950350000000     0.592360000000    -1.22464    
O96      O      0.449370000000     0.090120000000     0.592330000000    -1.22863    
O97      O      0.353420000000     0.432020000000     0.039920000000    -1.05207    
O98      O      0.694820000000     0.437040000000     0.024900000000    -0.777355   
O99      O      0.522410000000     0.353030000000     0.931910000000    -1.02649    
O100     O      0.514490000000     0.353520000000     0.109910000000    -1.06921    
O101     O      0.512520000000     0.434620000000     0.191260000000    -1.07566    
O102     O      0.517180000000     0.434000000000     0.849470000000    -0.784954   
O103     O      0.613560000000     0.354730000000     0.022860000000    -1.02176    
O104     O      0.436060000000     0.352270000000     0.037370000000    -1.06952    
O105     O      0.585490000000     0.453800000000     0.090980000000    -2.12298    
O106     O      0.450880000000     0.450920000000     0.959920000000    -2.09651    
O107     O      0.591720000000     0.449710000000     0.950530000000    -0.865975   
O108     O      0.506950000000     0.508170000000     0.036120000000    -2.58635    
O109     O      0.687700000000     0.611280000000     0.015150000000    -0.695758   
O110     O      0.349410000000     0.608440000000     0.031580000000    -0.943443   
O111     O      0.605720000000     0.525590000000     0.851010000000    -0.714636   
O112     O      0.612460000000     0.516710000000     0.189960000000    -0.980969   
O113     O      0.435720000000     0.504820000000     0.191630000000    -1.07347    
O114     O      0.430890000000     0.509780000000     0.852030000000    -0.765361   
O115     O      0.516980000000     0.691090000000     0.934860000000    -0.5611     
O116     O      0.513780000000     0.693650000000     0.110090000000    -0.616062   
O117     O      0.520540000000     0.608430000000     0.852980000000    -0.692321   
O118     O      0.514950000000     0.611500000000     0.191280000000    -0.969324   
O119     O      0.689110000000     0.526650000000     0.932530000000    -0.717929   
O120     O      0.349970000000     0.511320000000     0.934430000000    -0.960616   
O121     O      0.353360000000     0.503520000000     0.111290000000    -1.04784    
O122     O      0.693230000000     0.515360000000     0.107450000000    -0.760932   
O123     O      0.604580000000     0.692720000000     0.019180000000    -0.561167   
O124     O      0.429370000000     0.691840000000     0.030010000000    -0.614146   
O125     O      0.451170000000     0.582890000000     0.092000000000    -2.02333    
O126     O      0.578560000000     0.583630000000     0.961210000000    -1.58684    
O127     O      0.450620000000     0.591410000000     0.951170000000    -1.21433    
O128     O      0.591900000000     0.594000000000     0.088530000000    -1.21019    
Tb1      Tb     0.019400000000     0.021420000000     0.131960000000     6.39447    
Tb2      Tb     0.020810000000     0.912680000000     0.025550000000     4.27607    
Tb3      Tb     0.022350000000     0.132720000000     0.020840000000     6.33721    
Tb4      Tb     0.911690000000     0.025750000000     0.025370000000     4.28765    
Tb5      Tb     0.131820000000     0.019170000000     0.021000000000     6.38773    
Tb6      Tb     0.024470000000     0.024310000000     0.912180000000     3.11154    
Tb7      Tb     0.021750000000     0.522220000000     0.411300000000     6.34971    
Tb8      Tb     0.022980000000     0.630380000000     0.518370000000     4.22791    
Tb9      Tb     0.019860000000     0.410400000000     0.521910000000     6.3573     
Tb10     Tb     0.911740000000     0.518820000000     0.516590000000     4.29302    
Tb11     Tb     0.131790000000     0.522470000000     0.523640000000     6.40735    
Tb12     Tb     0.022370000000     0.518110000000     0.631190000000     3.12123    
Tb13     Tb     0.519320000000     0.021140000000     0.411530000000     6.4126     
Tb14     Tb     0.411340000000     0.024380000000     0.518050000000     4.31354    
Tb15     Tb     0.631470000000     0.020630000000     0.522560000000     6.31301    
Tb16     Tb     0.522430000000     0.912770000000     0.518110000000     4.29311    
Tb17     Tb     0.519730000000     0.132800000000     0.522450000000     6.42332    
Tb18     Tb     0.523910000000     0.024900000000     0.631250000000     3.09224    
Tb19     Tb     0.523600000000     0.411900000000     0.020860000000     6.43543    
Tb20     Tb     0.630230000000     0.520540000000     0.022030000000     4.28065    
Tb21     Tb     0.409930000000     0.520760000000     0.022300000000     6.36976    
Tb22     Tb     0.517710000000     0.518450000000     0.912430000000     4.28917    
Tb23     Tb     0.523040000000     0.522910000000     0.132400000000     6.55802    
Tb24     Tb     0.516140000000     0.631630000000     0.024430000000     3.06872    


