data_structure

_audit_creation_method RASPA-1.0
_audit_creation_date 2023-5-19
_audit_author_name 'Poobodin Mano'

_cell_length_a    18.8597
_cell_length_b    18.4711
_cell_length_c    17.4254
_cell_angle_alpha 90
_cell_angle_beta  90
_cell_angle_gamma 90
_cell_volume      6070.3

_symmetry_cell_setting          triclinic
_symmetry_space_group_name_Hall 'P 1'
_symmetry_space_group_name_H-M  'P 1'
_symmetry_Int_Tables_number     1

_symmetry_equiv_pos_as_xyz 'x,y,z'

loop_
_atom_site_label
_atom_site_type_symbol
_atom_site_fract_x
_atom_site_fract_y
_atom_site_fract_z
_atom_site_charge
C1       C      0.048400000000     0.252340000000     0.242730000000     0.755861   
C2       C      0.036660000000     0.926720000000     0.294430000000     0.709529   
C3       C      0.859880000000     0.088900000000     0.237940000000     0.697386   
C4       C      0.176780000000     0.126090000000     0.287530000000     0.778521   
C5       C      0.062130000000     0.884300000000     0.943830000000     0.593282   
C6       C      0.098300000000     0.207340000000     0.894190000000     0.669021   
C7       C      0.885530000000     0.901890000000     0.085380000000     0.559158   
C8       C      0.210960000000     0.900010000000     0.153780000000     0.671703   
C9       C      0.217230000000     0.234240000000     0.114360000000     0.70263    
C10      C      0.896520000000     0.244070000000     0.061960000000     0.696425   
C11      C      0.926320000000     0.043900000000     0.889900000000     0.603187   
C12      C      0.239590000000     0.048310000000     0.941720000000     0.650938   
C13      C      0.105730000000     0.390740000000     0.433350000000     0.744148   
C14      C      0.049590000000     0.714180000000     0.401000000000     0.700576   
C15      C      0.891270000000     0.524700000000     0.394320000000     0.695296   
C16      C      0.215230000000     0.540630000000     0.430580000000     0.719516   
C17      C      0.995380000000     0.726770000000     0.749380000000     0.607823   
C18      C      0.053480000000     0.407150000000     0.785280000000     0.659953   
C19      C      0.861720000000     0.707010000000     0.564150000000     0.582424   
C20      C      0.186670000000     0.739100000000     0.582780000000     0.698576   
C21      C      0.218280000000     0.407660000000     0.597940000000     0.698262   
C22      C      0.888710000000     0.371270000000     0.578440000000     0.674657   
C23      C      0.857950000000     0.549370000000     0.742140000000     0.59573    
C24      C      0.181470000000     0.564520000000     0.786630000000     0.668701   
C25      C      0.649680000000     0.081690000000     0.375390000000     0.728271   
C26      C      0.342750000000     0.101130000000     0.487860000000     0.720897   
C27      C      0.477690000000     0.915100000000     0.404780000000     0.708861   
C28      C      0.543090000000     0.239290000000     0.448630000000     0.746225   
C29      C      0.449190000000     0.039030000000     0.821240000000     0.578537   
C30      C      0.750530000000     0.006670000000     0.707230000000     0.663484   
C31      C      0.371390000000     0.905830000000     0.638390000000     0.612078   
C32      C      0.403480000000     0.235300000000     0.655950000000     0.688172   
C33      C      0.713190000000     0.203440000000     0.535890000000     0.712305   
C34      C      0.676440000000     0.869210000000     0.512310000000     0.674962   
C35      C      0.555890000000     0.871140000000     0.748450000000     0.585732   
C36      C      0.614270000000     0.195560000000     0.789040000000     0.637591   
C37      C      0.431050000000     0.359890000000     0.103940000000     0.737066   
C38      C      0.350730000000     0.685670000000     0.147140000000     0.766934   
C39      C      0.431590000000     0.528310000000     0.316420000000     0.770014   
C40      C      0.365690000000     0.504670000000     0.962180000000     0.781444   
C41      C      0.668880000000     0.766790000000     0.083070000000     0.636901   
C42      C      0.737150000000     0.437850000000     0.032360000000     0.612131   
C43      C      0.528720000000     0.718820000000     0.285250000000     0.73575    
C44      C      0.467820000000     0.725950000000     0.933390000000     0.752509   
C45      C      0.541660000000     0.397430000000     0.923620000000     0.660122   
C46      C      0.619300000000     0.402290000000     0.268890000000     0.764304   
C47      C      0.737740000000     0.613140000000     0.230530000000     0.679812   
C48      C      0.671660000000     0.604990000000     0.888380000000     0.622603   
C49      C      0.594880000000     0.287130000000     0.330560000000     0.154322   
C50      C      0.441940000000     0.798260000000     0.347990000000     0.155098   
C51      C      0.479920000000     0.775540000000     0.802880000000     0.133164   
C52      C      0.548470000000     0.267810000000     0.882560000000     0.136849   
C53      C      0.834470000000     0.254780000000     0.536600000000     0.128421   
C54      C      0.736490000000     0.749370000000     0.531940000000     0.111894   
C55      C      0.286280000000     0.296740000000     0.638340000000     0.13054    
C56      C      0.303600000000     0.793690000000     0.612140000000     0.135056   
C57      C      0.853870000000     0.570090000000     0.268470000000     0.131966   
C58      C      0.329740000000     0.482130000000     0.395490000000     0.14623    
C59      C      0.292300000000     0.518740000000     0.845160000000     0.145147   
C60      C      0.729720000000     0.565460000000     0.771080000000     0.118853   
C61      C      0.769790000000     0.847610000000     0.037750000000     0.104088   
C62      C      0.796850000000     0.318440000000     0.010710000000     0.12519    
C63      C      0.263850000000     0.782990000000     0.116090000000     0.136322   
C64      C      0.326110000000     0.287990000000     0.061460000000     0.148062   
C65      C      0.826250000000     0.991100000000     0.820220000000     0.137619   
C66      C      0.355540000000     0.994140000000     0.910310000000     0.137645   
C67      C      0.281860000000     0.138720000000     0.370730000000     0.163241   
C68      C      0.738430000000     0.050920000000     0.274100000000     0.135234   
C69      C      0.139020000000     0.323610000000     0.841830000000     0.156278   
C70      C      0.030460000000     0.836490000000     0.816410000000     0.116873   
C71      C      0.099790000000     0.829920000000     0.360270000000     0.150374   
C72      C      0.122630000000     0.343110000000     0.303810000000     0.162308   
H1       H      0.990420000000     0.024170000000     0.144890000000    -1.27736    
H2       H      0.089000000000     0.115430000000     0.138530000000    -1.10179    
H3       H      0.002830000000     0.182840000000     0.997320000000    -0.503462   
H4       H      0.179040000000     0.993860000000     0.056860000000    -0.529498   
H5       H      0.988020000000     0.599330000000     0.522950000000    -1.28803    
H6       H      0.087780000000     0.514330000000     0.551590000000    -1.04429    
H7       H      0.980060000000     0.430430000000     0.660840000000    -0.475258   
H8       H      0.143890000000     0.636060000000     0.666260000000    -0.510885   
H9       H      0.475400000000     0.015250000000     0.555190000000    -1.2912     
H10      H      0.579400000000     0.098260000000     0.546070000000    -1.07616    
H11      H      0.667080000000     0.967030000000     0.609680000000    -0.53815    
H12      H      0.517670000000     0.170160000000     0.698060000000    -0.503616   
H13      H      0.468260000000     0.618830000000     0.203660000000     1.26274    
H14      H      0.508420000000     0.509680000000     0.061920000000    -0.970122   
H15      H      0.653310000000     0.463200000000     0.144820000000    -0.288077   
H16      H      0.566200000000     0.642950000000     0.963820000000    -0.395832   
H17      H      0.664950000000     0.370040000000     0.370150000000     0.1141     
H18      H      0.548740000000     0.347380000000     0.423970000000     0.118447   
H19      H      0.558600000000     0.277960000000     0.281150000000     0.0104977  
H20      H      0.630860000000     0.239670000000     0.335250000000    -0.00659731 
H21      H      0.442840000000     0.902260000000     0.292790000000     0.112593   
H22      H      0.531260000000     0.746180000000     0.400060000000     0.12663    
H23      H      0.413880000000     0.785600000000     0.402560000000    -0.0117141  
H24      H      0.407190000000     0.782080000000     0.299260000000    -0.0269589  
H25      H      0.431480000000     0.826800000000     0.900470000000     0.113971   
H26      H      0.573020000000     0.823480000000     0.853480000000     0.110003   
H27      H      0.492940000000     0.719640000000     0.784040000000     0.0189567  
H28      H      0.439780000000     0.798000000000     0.762600000000     0.0152862  
H29      H      0.650390000000     0.220500000000     0.896640000000     0.106582   
H30      H      0.532590000000     0.361770000000     0.810960000000     0.119171   
H31      H      0.502660000000     0.240940000000     0.853940000000     0.0102274  
H32      H      0.544080000000     0.256190000000     0.945000000000     0.0127314  
H33      H      0.793600000000     0.332340000000     0.615430000000     0.112555   
H34      H      0.740690000000     0.301680000000     0.490100000000     0.110007   
H35      H      0.871120000000     0.260450000000     0.486950000000     0.00373223 
H36      H      0.848360000000     0.204800000000     0.568840000000     0.00844189 
H37      H      0.823750000000     0.810740000000     0.575800000000     0.114994   
H38      H      0.758070000000     0.829130000000     0.447050000000     0.110309   
H39      H      0.733530000000     0.700800000000     0.494430000000     0.0145686  
H40      H      0.698900000000     0.742720000000     0.580570000000     0.0183054  
H41      H      0.323260000000     0.389090000000     0.575370000000     0.113906   
H42      H      0.384160000000     0.342270000000     0.680630000000     0.110426   
H43      H      0.249310000000     0.294380000000     0.687880000000     0.00771561 
H44      H      0.274020000000     0.250510000000     0.599680000000     0.0170404  
H45      H      0.274840000000     0.881170000000     0.687140000000     0.115188   
H46      H      0.211630000000     0.846240000000     0.563560000000     0.111638   
H47      H      0.341660000000     0.786220000000     0.564070000000     0.00876056 
H48      H      0.310110000000     0.747730000000     0.652720000000     0.0122466  
H49      H      0.795810000000     0.499530000000     0.343600000000     0.112707   
H50      H      0.790130000000     0.647610000000     0.326830000000     0.112241   
H51      H      0.905470000000     0.599200000000     0.269410000000     0.0153812  
H52      H      0.850700000000     0.537920000000     0.214570000000     0.0114407  
H53      H      0.423800000000     0.535360000000     0.434490000000     0.112812   
H54      H      0.257160000000     0.536130000000     0.321190000000     0.110092   
H55      H      0.328060000000     0.435270000000     0.355400000000    -0.0100011  
H56      H      0.327480000000     0.461150000000     0.455220000000     0.00151259 
H57      H      0.201890000000     0.566320000000     0.902580000000     0.108501   
H58      H      0.265880000000     0.460700000000     0.948580000000     0.113114   
H59      H      0.289980000000     0.474450000000     0.801960000000     0.00387594 
H60      H      0.333830000000     0.557650000000     0.826480000000     0.0122863  
H61      H      0.813500000000     0.537200000000     0.849480000000     0.118772   
H62      H      0.743170000000     0.665400000000     0.827960000000     0.113306   
H63      H      0.726280000000     0.586380000000     0.711400000000     0.0246169  
H64      H      0.695120000000     0.516920000000     0.776530000000     0.0150101  
H65      H      0.849840000000     0.797610000000     0.106990000000     0.114317   
H66      H      0.679740000000     0.876060000000     0.106730000000     0.109033   
H67      H      0.762540000000     0.901180000000     0.009720000000     0.0201899  
H68      H      0.775900000000     0.806190000000     0.991920000000     0.0173827  
H69      H      0.871150000000     0.345710000000     0.097750000000     0.119742   
H70      H      0.834850000000     0.425300000000     0.979510000000     0.108395   
H71      H      0.811710000000     0.295040000000     0.954140000000     0.00200087 
H72      H      0.746080000000     0.293240000000     0.028830000000     0.0234916  
H73      H      0.248120000000     0.690820000000     0.188240000000     0.106718   
H74      H      0.311090000000     0.865460000000     0.185340000000     0.110577   
H75      H      0.299900000000     0.792820000000     0.066610000000     0.00822828 
H76      H      0.210300000000     0.771000000000     0.092550000000     0.00754091 
H77      H      0.250240000000     0.338910000000     0.133630000000     0.110865   
H78      H      0.424980000000     0.248350000000     0.104210000000     0.11182    
H79      H      0.326450000000     0.237060000000     0.027220000000    -0.00306006 
H80      H      0.317810000000     0.333880000000     0.021020000000    -0.00530256 
H81      H      0.919840000000     0.040130000000     0.773400000000     0.117156   
H82      H      0.849880000000     0.960740000000     0.703440000000     0.117393   
H83      H      0.834810000000     0.937350000000     0.847440000000     0.00836187 
H84      H      0.783710000000     0.019560000000     0.852540000000     0.0230929  
H85      H      0.284720000000     0.047990000000     0.834240000000     0.125661   
H86      H      0.456620000000     0.036870000000     0.939100000000     0.10599    
H87      H      0.355460000000     0.977130000000     0.971590000000     0.00709614 
H88      H      0.352300000000     0.944650000000     0.874070000000     0.00221458 
H89      H      0.178130000000     0.180410000000     0.389580000000     0.11749    
H90      H      0.235500000000     0.121360000000     0.484650000000     0.111642   
H91      H      0.304490000000     0.093890000000     0.335690000000     0.00400273 
H92      H      0.315700000000     0.187310000000     0.361950000000    -0.00183743 
H93      H      0.814520000000     0.104740000000     0.344490000000     0.127235   
H94      H      0.645940000000     0.116290000000     0.262910000000     0.117041   
H95      H      0.730440000000     0.040790000000     0.211770000000     0.00514711 
H96      H      0.742230000000     0.997680000000     0.303690000000     0.00404882 
H97      H      0.126890000000     0.223470000000     0.780600000000     0.116655   
H98      H      0.060990000000     0.386090000000     0.901180000000     0.111723   
H99      H      0.170590000000     0.330910000000     0.895270000000    -0.00517118 
H100     H      0.172520000000     0.339710000000     0.792080000000     0.00137662 
H101     H      0.946740000000     0.764440000000     0.846280000000     0.1136     
H102     H      0.056230000000     0.775490000000     0.918890000000     0.114228   
H103     H      0.076590000000     0.834430000000     0.776600000000     0.0184264  
H104     H      0.003560000000     0.889570000000     0.808570000000     0.0222986  
H105     H      0.033300000000     0.910800000000     0.411770000000     0.11747    
H106     H      0.067970000000     0.741600000000     0.287590000000     0.120427   
H107     H      0.141500000000     0.839730000000     0.316210000000     0.00221082 
H108     H      0.126250000000     0.829110000000     0.417390000000     0.00720462 
H109     H      0.162260000000     0.297840000000     0.409690000000     0.108534   
H110     H      0.020340000000     0.305490000000     0.340450000000     0.116153   
H111     H      0.119250000000     0.399040000000     0.280580000000     0.0121467  
H112     H      0.165800000000     0.314070000000     0.272880000000    -0.0181713  
N1       N      0.552990000000     0.295340000000     0.400590000000    -0.304773   
N2       N      0.637740000000     0.352290000000     0.321310000000    -0.305448   
N3       N      0.509120000000     0.758910000000     0.346700000000    -0.304656   
N4       N      0.455400000000     0.875600000000     0.343960000000    -0.291814   
N5       N      0.544850000000     0.819290000000     0.801930000000    -0.264817   
N6       N      0.450610000000     0.776990000000     0.880850000000    -0.298064   
N7       N      0.542990000000     0.345950000000     0.867460000000    -0.278201   
N8       N      0.615610000000     0.237150000000     0.853370000000    -0.266485   
N9       N      0.760990000000     0.251990000000     0.508850000000    -0.292655   
N10      N      0.840660000000     0.317450000000     0.587720000000    -0.281199   
N11      N      0.719030000000     0.814570000000     0.486800000000    -0.275408   
N12      N      0.808910000000     0.757640000000     0.562250000000    -0.262457   
N13      N      0.360020000000     0.293100000000     0.666220000000    -0.283674   
N14      N      0.276900000000     0.364920000000     0.596190000000    -0.287306   
N15      N      0.231600000000     0.796010000000     0.581020000000    -0.289556   
N16      N      0.316380000000     0.861200000000     0.653410000000    -0.274054   
N17      N      0.796590000000     0.623260000000     0.273050000000    -0.285854   
N18      N      0.846350000000     0.521100000000     0.334110000000    -0.288866   
N19      N      0.268630000000     0.528610000000     0.379380000000    -0.294317   
N20      N      0.396490000000     0.521260000000     0.384420000000    -0.307487   
N21      N      0.307510000000     0.487330000000     0.920650000000    -0.310092   
N22      N      0.223940000000     0.556170000000     0.848520000000    -0.284769   
N23      N      0.707420000000     0.622230000000     0.823870000000    -0.268028   
N24      N      0.802540000000     0.545620000000     0.791290000000    -0.265308   
N25      N      0.705830000000     0.830980000000     0.083940000000    -0.267491   
N26      N      0.835200000000     0.847880000000     0.084400000000    -0.252864   
N27      N      0.791670000000     0.398040000000     0.003630000000    -0.267243   
N28      N      0.851600000000     0.301210000000     0.067090000000    -0.282773   
N29      N      0.262170000000     0.848710000000     0.163380000000    -0.278998   
N30      N      0.288010000000     0.720110000000     0.160400000000    -0.304234   
N31      N      0.395230000000     0.295910000000     0.099340000000    -0.295192   
N32      N      0.267290000000     0.287440000000     0.116760000000    -0.284577   
N33      N      0.810010000000     0.980920000000     0.739320000000    -0.280342   
N34      N      0.891260000000     0.032320000000     0.824310000000    -0.273813   
N35      N      0.421550000000     0.031770000000     0.892900000000    -0.263892   
N36      N      0.294680000000     0.039580000000     0.892610000000    -0.276329   
N37      N      0.282160000000     0.119220000000     0.452250000000    -0.300619   
N38      N      0.210050000000     0.155730000000     0.348140000000    -0.318074   
N39      N      0.677960000000     0.091450000000     0.304260000000    -0.292264   
N40      N      0.804230000000     0.090370000000     0.287500000000    -0.286331   
N41      N      0.075460000000     0.368220000000     0.846410000000    -0.278138   
N42      N      0.118790000000     0.248270000000     0.833840000000    -0.281113   
N43      N      0.055630000000     0.827670000000     0.895490000000    -0.266289   
N44      N      0.979570000000     0.779020000000     0.800370000000    -0.264944   
N45      N      0.065610000000     0.760880000000     0.343960000000    -0.28804    
N46      N      0.047400000000     0.887900000000     0.359050000000    -0.290371   
N47      N      0.054390000000     0.307040000000     0.293040000000    -0.301887   
N48      N      0.137980000000     0.343310000000     0.385940000000    -0.309183   
O1       O      0.069860000000     0.262890000000     0.170930000000    -1.0431     
O2       O      0.048030000000     0.894620000000     0.226370000000    -0.780792   
O3       O      0.924340000000     0.093060000000     0.269620000000    -1.09586    
O4       O      0.107420000000     0.120520000000     0.295330000000    -1.24017    
O5       O      0.213720000000     0.105430000000     0.225380000000    -1.06739    
O6       O      0.848570000000     0.080220000000     0.161980000000    -0.764154   
O7       O      0.023220000000     0.997330000000     0.303180000000    -1.11701    
O8       O      0.025120000000     0.189470000000     0.270020000000    -1.11008    
O9       O      0.113650000000     0.010070000000     0.197310000000    -2.1144     
O10      O      0.973540000000     0.155640000000     0.147270000000    -2.13534    
O11      O      0.959820000000     0.001130000000     0.173020000000    -0.889725   
O12      O      0.066600000000     0.084500000000     0.107280000000    -2.59102    
O13      O      0.054950000000     0.870790000000     0.019430000000    -0.711362   
O14      O      0.085220000000     0.239200000000     0.962560000000    -0.924541   
O15      O      0.866320000000     0.970850000000     0.067150000000    -0.671588   
O16      O      0.231820000000     0.969670000000     0.154420000000    -0.94603    
O17      O      0.238230000000     0.164890000000     0.117190000000    -1.0122     
O18      O      0.871240000000     0.175370000000     0.057240000000    -0.706401   
O19      O      0.996210000000     0.050440000000     0.881710000000    -0.667218   
O20      O      0.175630000000     0.051320000000     0.909720000000    -0.682607   
O21      O      0.890350000000     0.048160000000     0.957070000000    -0.701317   
O22      O      0.250930000000     0.050150000000     0.018560000000    -0.879523   
O23      O      0.952110000000     0.882290000000     0.106970000000    -0.690514   
O24      O      0.965130000000     0.260420000000     0.070300000000    -0.980524   
O25      O      0.149700000000     0.254800000000     0.105290000000    -0.994227   
O26      O      0.143990000000     0.878930000000     0.138230000000    -0.720637   
O27      O      0.072360000000     0.950170000000     0.912840000000    -0.639125   
O28      O      0.094380000000     0.136410000000     0.882190000000    -0.679181   
O29      O      0.142160000000     0.134730000000     0.025230000000    -2.02181    
O30      O      0.997370000000     0.994570000000     0.021660000000    -1.57502    
O31      O      0.990520000000     0.134350000000     0.987220000000    -1.25711    
O32      O      0.135800000000     0.978310000000     0.036140000000    -1.23388    
O33      O      0.096800000000     0.371340000000     0.506360000000    -1.05854    
O34      O      0.040970000000     0.740410000000     0.472250000000    -0.785954   
O35      O      0.959920000000     0.537900000000     0.380020000000    -1.06463    
O36      O      0.150120000000     0.546010000000     0.401570000000    -1.08924    
O37      O      0.229720000000     0.545130000000     0.505920000000    -0.993179   
O38      O      0.863550000000     0.519120000000     0.464790000000    -0.805197   
O39      O      0.048930000000     0.643670000000     0.383310000000    -1.05624    
O40      O      0.084140000000     0.453150000000     0.403430000000    -1.1485     
O41      O      0.115560000000     0.627870000000     0.511010000000    -2.1324     
O42      O      0.985660000000     0.465110000000     0.505300000000    -2.05057    
O43      O      0.962560000000     0.621880000000     0.488980000000    -0.866239   
O44      O      0.055550000000     0.540630000000     0.576910000000    -2.5701     
O45      O      0.010030000000     0.746370000000     0.676510000000    -0.719994   
O46      O      0.062340000000     0.379970000000     0.713760000000    -0.873517   
O47      O      0.845820000000     0.635240000000     0.560350000000    -0.694732   
O48      O      0.213040000000     0.672870000000     0.597380000000    -0.97086    
O49      O      0.229970000000     0.478570000000     0.591190000000    -1.04355    
O50      O      0.862590000000     0.438700000000     0.575480000000    -0.766878   
O51      O      0.923340000000     0.550460000000     0.773360000000    -0.62542    
O52      O      0.112020000000     0.572160000000     0.800210000000    -0.685377   
O53      O      0.844480000000     0.549520000000     0.666240000000    -0.72084    
O54      O      0.210100000000     0.560760000000     0.715830000000    -0.929561   
O55      O      0.928070000000     0.733730000000     0.571090000000    -0.73444    
O56      O      0.958640000000     0.355650000000     0.583110000000    -0.903845   
O57      O      0.153450000000     0.377780000000     0.603710000000    -0.933372   
O58      O      0.117740000000     0.752940000000     0.571340000000    -0.762978   
O59      O      0.997050000000     0.658810000000     0.776420000000    -0.659081   
O60      O      0.032000000000     0.474300000000     0.799990000000    -0.69629    
O61      O      0.111490000000     0.491640000000     0.675140000000    -2.00301    
O62      O      0.959940000000     0.618620000000     0.646470000000    -1.64112    
O63      O      0.959800000000     0.476500000000     0.668180000000    -1.27424    
O64      O      0.095650000000     0.646490000000     0.674340000000    -1.28403    
O65      O      0.691040000000     0.061360000000     0.434260000000    -1.00731    
O66      O      0.340750000000     0.089150000000     0.563800000000    -0.805564   
O67      O      0.478960000000     0.986950000000     0.395390000000    -1.0801     
O68      O      0.529310000000     0.174270000000     0.418900000000    -1.08137    
O69      O      0.552170000000     0.252470000000     0.522860000000    -1.06469    
O70      O      0.495900000000     0.881100000000     0.470350000000    -0.803951   
O71      O      0.401260000000     0.097370000000     0.444600000000    -1.10041    
O72      O      0.580170000000     0.092240000000     0.381300000000    -1.09312    
O73      O      0.469040000000     0.148130000000     0.553860000000    -2.1382     
O74      O      0.585430000000     0.987980000000     0.484590000000    -2.11274    
O75      O      0.438820000000     0.996010000000     0.532770000000    -0.884743   
O76      O      0.558660000000     0.068960000000     0.580250000000    -2.56323    
O77      O      0.405630000000     0.047870000000     0.759620000000    -0.688823   
O78      O      0.749210000000     0.012320000000     0.630460000000    -0.929109   
O79      O      0.430180000000     0.877780000000     0.605310000000    -0.749987   
O80      O      0.473030000000     0.248900000000     0.645280000000    -0.90571    
O81      O      0.652580000000     0.230060000000     0.564320000000    -1.05459    
O82      O      0.611750000000     0.853830000000     0.540850000000    -0.762655   
O83      O      0.585710000000     0.933230000000     0.773080000000    -0.595357   
O84      O      0.621890000000     0.123750000000     0.797640000000    -0.632094   
O85      O      0.531430000000     0.859470000000     0.676630000000    -0.720013   
O86      O      0.592970000000     0.226600000000     0.723270000000    -0.932031   
O87      O      0.362020000000     0.975930000000     0.656850000000    -0.77087    
O88      O      0.702400000000     0.937040000000     0.507330000000    -0.895797   
O89      O      0.728770000000     0.132910000000     0.531130000000    -1.04003    
O90      O      0.375420000000     0.168620000000     0.655340000000    -0.771289   
O91      O      0.520180000000     0.038220000000     0.817530000000    -0.613092   
O92      O      0.694870000000     0.018690000000     0.752790000000    -0.664289   
O93      O      0.650380000000     0.113320000000     0.647770000000    -1.93506    
O94      O      0.497610000000     0.985450000000     0.677650000000    -1.62556    
O95      O      0.627710000000     0.955600000000     0.639740000000    -1.20681    
O96      O      0.505330000000     0.122830000000     0.711750000000    -1.28297    
O97      O      0.501590000000     0.357110000000     0.098740000000    -0.927574   
O98      O      0.407330000000     0.724860000000     0.124700000000    -1.09292    
O99      O      0.396220000000     0.518590000000     0.249610000000    -1.24228    
O100     O      0.360530000000     0.499210000000     0.038380000000    -1.26091    
O101     O      0.422970000000     0.528430000000     0.925100000000    -1.0108     
O102     O      0.500620000000     0.545390000000     0.321070000000    -1.18067    
O103     O      0.351260000000     0.613270000000     0.156430000000    -1.29541    
O104     O      0.394580000000     0.421310000000     0.112940000000    -1.2311     
O105     O      0.442310000000     0.612150000000     0.040440000000    -2.32572    
O106     O      0.510370000000     0.469540000000     0.188760000000    -2.34315    
O107     O      0.495040000000     0.604910000000     0.172940000000    -4.57644    
O108     O      0.533350000000     0.544100000000     0.086200000000    -2.56413    
O109     O      0.598630000000     0.769540000000     0.100930000000    -0.97687    
O110     O      0.680540000000     0.402040000000     0.058740000000    -0.83003    
O111     O      0.561440000000     0.655940000000     0.301260000000    -1.12116    
O112     O      0.484710000000     0.659500000000     0.908030000000    -0.909252   
O113     O      0.523950000000     0.465170000000     0.903460000000    -0.936958   
O114     O      0.614410000000     0.470900000000     0.292360000000    -1.1577     
O115     O      0.745650000000     0.606330000000     0.154180000000    -0.611485   
O116     O      0.704060000000     0.617610000000     0.955280000000    -0.6102     
O117     O      0.676360000000     0.604140000000     0.268730000000    -1.04709    
O118     O      0.604860000000     0.579950000000     0.881770000000    -0.831236   
O119     O      0.508170000000     0.741030000000     0.214440000000    -1.08397    
O120     O      0.605330000000     0.380070000000     0.197250000000    -0.874001   
O121     O      0.559880000000     0.378030000000     0.994860000000    -0.8973     
O122     O      0.472840000000     0.746520000000     0.007010000000    -1.08616    
O123     O      0.703860000000     0.704980000000     0.065810000000    -0.56897    
O124     O      0.742160000000     0.510880000000     0.031250000000    -0.575027   
O125     O      0.614140000000     0.507160000000     0.001840000000    -1.72261    
O126     O      0.609440000000     0.647790000000     0.156300000000    -2.0766     
O127     O      0.658510000000     0.511610000000     0.159790000000    -1.55563    
O128     O      0.586380000000     0.661920000000     0.008320000000    -1.49297    
Tb1      Tb     0.029020000000     0.083000000000     0.217020000000     6.99877    
Tb2      Tb     0.050570000000     0.948190000000     0.114970000000     4.1009     
Tb3      Tb     0.056510000000     0.189400000000     0.074490000000     6.17096    
Tb4      Tb     0.932090000000     0.071570000000     0.073690000000     4.07624    
Tb5      Tb     0.172920000000     0.065680000000     0.114270000000     6.15868    
Tb6      Tb     0.075540000000     0.055910000000     0.968910000000     3.54103    
Tb7      Tb     0.048280000000     0.550270000000     0.460520000000     6.64487    
Tb8      Tb     0.029680000000     0.676390000000     0.576180000000     4.26844    
Tb9      Tb     0.048580000000     0.432660000000     0.599570000000     5.91125    
Tb10     Tb     0.920140000000     0.540950000000     0.570990000000     4.25245    
Tb11     Tb     0.156850000000     0.568770000000     0.602890000000     6.22421    
Tb12     Tb     0.027060000000     0.559990000000     0.716680000000     3.57971    
Tb13     Tb     0.509160000000     0.071120000000     0.476760000000     6.65739    
Tb14     Tb     0.432740000000     0.066990000000     0.635420000000     4.40115    
Tb15     Tb     0.660170000000     0.039510000000     0.554950000000     6.0396     
Tb16     Tb     0.530040000000     0.933380000000     0.577280000000     4.40103    
Tb17     Tb     0.560870000000     0.174610000000     0.614680000000     6.19271    
Tb18     Tb     0.587320000000     0.039450000000     0.716510000000     3.23347    
Tb19     Tb     0.433870000000     0.532730000000     0.128980000000     7.84356    
Tb20     Tb     0.514880000000     0.683310000000     0.103530000000     6.70368    
Tb21     Tb     0.578960000000     0.445350000000     0.096130000000     5.08978    
Tb22     Tb     0.574280000000     0.562360000000     0.226740000000     7.07162    
Tb23     Tb     0.523360000000     0.565350000000     0.972290000000     5.50965    
Tb24     Tb     0.662280000000     0.592550000000     0.068240000000     3.01283    


