data_structure

_audit_creation_method RASPA-1.0
_audit_creation_date 2023-5-19
_audit_author_name 'Poobodin Mano'

_cell_length_a    20.3331
_cell_length_b    20.4464
_cell_length_c    20.7901
_cell_angle_alpha 90
_cell_angle_beta  90
_cell_angle_gamma 90
_cell_volume      8643.25

_symmetry_cell_setting          triclinic
_symmetry_space_group_name_Hall 'P 1'
_symmetry_space_group_name_H-M  'P 1'
_symmetry_Int_Tables_number     1

_symmetry_equiv_pos_as_xyz 'x,y,z'

loop_
_atom_site_label
_atom_site_type_symbol
_atom_site_fract_x
_atom_site_fract_y
_atom_site_fract_z
_atom_site_charge
C1       C      0.028820000000     0.181140000000     0.207030000000     0.73186    
C2       C      0.056300000000     0.881710000000     0.168910000000     0.696144   
C3       C      0.875600000000     0.019720000000     0.163250000000     0.683296   
C4       C      0.169620000000     0.075310000000     0.212560000000     0.74719    
C5       C      0.089170000000     0.926670000000     0.879150000000     0.573458   
C6       C      0.062850000000     0.224520000000     0.915080000000     0.670352   
C7       C      0.924870000000     0.887830000000     0.997450000000     0.594789   
C8       C      0.220080000000     0.921100000000     0.064140000000     0.711631   
C9       C      0.176970000000     0.216520000000     0.099850000000     0.715337   
C10      C      0.876010000000     0.180940000000     0.044840000000     0.689374   
C11      C      0.930560000000     0.050690000000     0.872150000000     0.591055   
C12      C      0.223020000000     0.098990000000     0.919170000000     0.65816    
C13      C      0.036880000000     0.430350000000     0.375040000000     0.738292   
C14      C      0.066430000000     0.728460000000     0.420750000000     0.694839   
C15      C      0.885650000000     0.592850000000     0.420390000000     0.683748   
C16      C      0.182310000000     0.536350000000     0.374730000000     0.739158   
C17      C      0.093590000000     0.676360000000     0.709750000000     0.568493   
C18      C      0.066690000000     0.379480000000     0.666480000000     0.674945   
C19      C      0.931890000000     0.718830000000     0.588220000000     0.58835    
C20      C      0.230400000000     0.683810000000     0.527970000000     0.702319   
C21      C      0.178600000000     0.390120000000     0.479940000000     0.732276   
C22      C      0.883190000000     0.426070000000     0.532780000000     0.700144   
C23      C      0.933230000000     0.551390000000     0.711410000000     0.576491   
C24      C      0.226830000000     0.500450000000     0.667460000000     0.659662   
C25      C      0.714250000000     0.026340000000     0.415050000000     0.731038   
C26      C      0.413060000000     0.050600000000     0.377390000000     0.687478   
C27      C      0.540750000000     0.874300000000     0.422110000000     0.678782   
C28      C      0.600050000000     0.170400000000     0.376830000000     0.744471   
C29      C      0.384210000000     0.093990000000     0.669700000000     0.574747   
C30      C      0.681200000000     0.067280000000     0.709750000000     0.659781   
C31      C      0.374470000000     0.930110000000     0.556750000000     0.595936   
C32      C      0.422490000000     0.219590000000     0.488630000000     0.703364   
C33      C      0.720380000000     0.174060000000     0.519160000000     0.738673   
C34      C      0.676370000000     0.880320000000     0.575450000000     0.688407   
C35      C      0.509240000000     0.930250000000     0.710830000000     0.56431    
C36      C      0.565690000000     0.226830000000     0.666300000000     0.670762   
C37      C      0.431430000000     0.379400000000     0.098950000000     0.631022   
C38      C      0.727210000000     0.424700000000     0.010530000000     0.622492   
C39      C      0.591050000000     0.385670000000     0.909820000000     0.630705   
C40      C      0.579480000000     0.418370000000     0.209570000000     0.636726   
C41      C      0.673320000000     0.720410000000     0.002360000000     0.571351   
C42      C      0.380650000000     0.669640000000     0.056730000000     0.590561   
C43      C      0.683280000000     0.533970000000     0.878950000000     0.587864   
C44      C      0.725240000000     0.583290000000     0.170240000000     0.633473   
C45      C      0.431230000000     0.522890000000     0.206930000000     0.606157   
C46      C      0.386600000000     0.491000000000     0.915230000000     0.63347    
C47      C      0.512760000000     0.677770000000     0.879540000000     0.562612   
C48      C      0.534730000000     0.713220000000     0.171410000000     0.58084    
C49      C      0.590690000000     0.307890000000     0.259550000000     0.0055364  
C50      C      0.613450000000     0.279290000000     0.324540000000     0.0166423  
C51      C      0.531280000000     0.758020000000     0.282080000000    -0.000602525
C52      C      0.538430000000     0.825270000000     0.313820000000     0.0197454  
C53      C      0.497400000000     0.820150000000     0.762090000000     0.00426731 
C54      C      0.501620000000     0.789090000000     0.830060000000    -0.00342008 
C55      C      0.573480000000     0.279950000000     0.772770000000     0.00771471 
C56      C      0.606410000000     0.341400000000     0.799480000000     0.00455494 
C57      C      0.836040000000     0.316020000000     0.518800000000     0.0135532  
C58      C      0.769510000000     0.283580000000     0.505710000000     0.0181713  
C59      C      0.820210000000     0.766160000000     0.601190000000    -0.00208713 
C60      C      0.787670000000     0.833100000000     0.590130000000     0.0183901  
C61      C      0.286410000000     0.339180000000     0.454080000000     0.0179109  
C62      C      0.314210000000     0.270100000000     0.464630000000     0.00560871 
C63      C      0.317420000000     0.823390000000     0.572940000000     0.00357061 
C64      C      0.280480000000     0.794180000000     0.515850000000     0.0133632  
C65      C      0.771630000000     0.596200000000     0.279160000000     0.0033549  
C66      C      0.838610000000     0.606010000000     0.311470000000     0.0178833  
C67      C      0.321170000000     0.510500000000     0.256830000000     0.000116725
C68      C      0.290480000000     0.515920000000     0.324210000000     0.0210026  
C69      C      0.340930000000     0.472420000000     0.806530000000     0.00760205 
C70      C      0.273090000000     0.475840000000     0.774660000000     0.00456039 
C71      C      0.823310000000     0.552120000000     0.763080000000     0.00436377 
C72      C      0.794450000000     0.538390000000     0.830050000000     0.00589426 
C73      C      0.814010000000     0.839120000000     0.981010000000     0.00505771 
C74      C      0.782990000000     0.770700000000     0.986350000000     0.00444414 
C75      C      0.820950000000     0.290070000000     0.048790000000     0.0175143  
C76      C      0.780450000000     0.316460000000     0.992440000000     0.0049982  
C77      C      0.264910000000     0.809920000000     0.073660000000     0.0159677  
C78      C      0.332100000000     0.778520000000     0.065680000000     0.000554254
C79      C      0.288280000000     0.263310000000     0.121660000000     0.0167917  
C80      C      0.320880000000     0.331590000000     0.120880000000     6.31258e-05
C81      C      0.822040000000     0.044480000000     0.820130000000     0.00242055 
C82      C      0.793020000000     0.065500000000     0.755700000000     0.0178992  
C83      C      0.271100000000     0.115740000000     0.811360000000     0.00697344 
C84      C      0.338610000000     0.109670000000     0.779050000000     0.000182284
C85      C      0.275860000000     0.092610000000     0.268010000000     0.0215683  
C86      C      0.302460000000     0.061470000000     0.329540000000     0.00383418 
C87      C      0.827340000000     0.011470000000     0.272090000000     0.0118074  
C88      C      0.759990000000     0.019000000000     0.304660000000     0.0143535  
C89      C      0.079010000000     0.333650000000     0.773520000000     0.00891481 
C90      C      0.075540000000     0.268150000000     0.806990000000     0.00870982 
C91      C      0.100600000000     0.786140000000     0.761120000000     0.00335851 
C92      C      0.098230000000     0.816040000000     0.829250000000     0.00310437 
C93      C      0.058580000000     0.838660000000     0.278670000000     0.0173032  
C94      C      0.065510000000     0.773030000000     0.311950000000     0.0174766  
C95      C      0.030290000000     0.291190000000     0.256700000000     0.0121384  
C96      C      0.033220000000     0.321120000000     0.324280000000     0.0156788  
H1       H      0.004260000000     0.994790000000     0.075570000000    -1.27799    
H2       H      0.078220000000     0.091310000000     0.090260000000    -1.07521    
H3       H      0.985770000000     0.163030000000     0.988950000000    -0.508896   
H4       H      0.177530000000     0.015920000000     0.997520000000    -0.55155    
H5       H      0.012820000000     0.613060000000     0.510550000000    -1.24049    
H6       H      0.085850000000     0.516650000000     0.494810000000    -1.11326    
H7       H      0.990490000000     0.443290000000     0.593050000000    -0.547368   
H8       H      0.184190000000     0.588000000000     0.591250000000    -0.561469   
H9       H      0.499320000000     0.004120000000     0.498090000000    -1.22538    
H10      H      0.596580000000     0.077730000000     0.504400000000    -1.10121    
H11      H      0.642050000000     0.989250000000     0.622890000000    -0.526467   
H12      H      0.500420000000     0.178110000000     0.574850000000    -0.58046    
H13      H      0.594270000000     0.507490000000     0.004350000000    -0.815319   
H14      H      0.528370000000     0.504900000000     0.089280000000    -1.40819    
H15      H      0.428850000000     0.577150000000     0.992380000000    -0.321972   
H16      H      0.615680000000     0.628010000000     0.133150000000    -0.323165   
H17      H      0.586660000000     0.402440000000     0.307480000000     0.104936   
H18      H      0.619460000000     0.183350000000     0.279770000000     0.104607   
H19      H      0.541810000000     0.287280000000     0.246770000000     0.0321688  
H20      H      0.625670000000     0.293440000000     0.220940000000     0.0267757  
H21      H      0.581110000000     0.298150000000     0.363520000000     0.0376915  
H22      H      0.664310000000     0.296330000000     0.334660000000     0.0251762  
H23      H      0.513520000000     0.809720000000     0.192190000000     0.102506   
H24      H      0.530170000000     0.774910000000     0.406010000000     0.105063   
H25      H      0.486170000000     0.733500000000     0.300290000000     0.0332369  
H26      H      0.574070000000     0.726800000000     0.295120000000     0.0402681  
H27      H      0.497800000000     0.857890000000     0.297780000000     0.0265937  
H28      H      0.585390000000     0.848300000000     0.298290000000     0.0304823  
H29      H      0.496710000000     0.915580000000     0.808790000000     0.103666   
H30      H      0.498740000000     0.694350000000     0.782280000000     0.103518   
H31      H      0.450850000000     0.804770000000     0.738470000000     0.0372315  
H32      H      0.538500000000     0.801510000000     0.731900000000     0.0399595  
H33      H      0.458620000000     0.804710000000     0.859300000000     0.0406821  
H34      H      0.546450000000     0.807070000000     0.855070000000     0.0426321  
H35      H      0.582080000000     0.325560000000     0.678800000000     0.108342   
H36      H      0.629590000000     0.294480000000     0.889540000000     0.104493   
H37      H      0.521760000000     0.277440000000     0.789930000000     0.0325194  
H38      H      0.599440000000     0.235550000000     0.790550000000     0.0374169  
H39      H      0.579010000000     0.385440000000     0.783150000000     0.0440188  
H40      H      0.657340000000     0.344080000000     0.780230000000     0.0284988  
H41      H      0.782970000000     0.408010000000     0.532100000000     0.105162   
H42      H      0.820700000000     0.190080000000     0.513470000000     0.106127   
H43      H      0.870380000000     0.305180000000     0.478510000000     0.0310657  
H44      H      0.858030000000     0.295010000000     0.563230000000     0.0307301  
H45      H      0.752260000000     0.296620000000     0.456610000000     0.0290655  
H46      H      0.732360000000     0.302250000000     0.540500000000     0.0340778  
H47      H      0.914370000000     0.816820000000     0.607090000000     0.102407   
H48      H      0.693750000000     0.781360000000     0.588110000000     0.106156   
H49      H      0.803260000000     0.731430000000     0.563450000000     0.0402537  
H50      H      0.804380000000     0.746300000000     0.648490000000     0.0361394  
H51      H      0.807350000000     0.855380000000     0.545270000000     0.0298161  
H52      H      0.800250000000     0.866680000000     0.630400000000     0.0309014  
H53      H      0.189580000000     0.295640000000     0.446150000000     0.108071   
H54      H      0.410540000000     0.316030000000     0.462020000000     0.107468   
H55      H      0.301140000000     0.356840000000     0.405640000000     0.0234475  
H56      H      0.307550000000     0.373170000000     0.490420000000     0.0363738  
H57      H      0.300340000000     0.237830000000     0.423760000000     0.0313288  
H58      H      0.292760000000     0.248480000000     0.509040000000     0.0362934  
H59      H      0.273710000000     0.918690000000     0.563880000000     0.106476   
H60      H      0.328720000000     0.700940000000     0.508600000000     0.108715   
H61      H      0.367630000000     0.802060000000     0.575970000000     0.0436662  
H62      H      0.290070000000     0.810980000000     0.617590000000     0.0334412  
H63      H      0.305340000000     0.810570000000     0.471010000000     0.0240553  
H64      H      0.228990000000     0.812550000000     0.515190000000     0.0403681  
H65      H      0.823930000000     0.600630000000     0.187590000000     0.10289    
H66      H      0.786320000000     0.605820000000     0.402970000000     0.105782   
H67      H      0.737850000000     0.636640000000     0.292930000000     0.0353005  
H68      H      0.749130000000     0.549790000000     0.296380000000     0.0370865  
H69      H      0.858940000000     0.654580000000     0.297950000000     0.0248666  
H70      H      0.873590000000     0.568100000000     0.293990000000     0.0318857  
H71      H      0.416020000000     0.517360000000     0.305010000000     0.10415    
H72      H      0.196390000000     0.531520000000     0.276230000000     0.107293   
H73      H      0.302040000000     0.550250000000     0.225420000000     0.0388382  
H74      H      0.306980000000     0.463230000000     0.234390000000     0.0342583  
H75      H      0.313590000000     0.557120000000     0.350910000000     0.0303332  
H76      H      0.300600000000     0.470580000000     0.352020000000     0.0303989  
H77      H      0.290190000000     0.463300000000     0.898450000000     0.106347   
H78      H      0.324430000000     0.476140000000     0.682530000000     0.107096   
H79      H      0.371600000000     0.514020000000     0.789400000000     0.0417857  
H80      H      0.366080000000     0.426430000000     0.792080000000     0.0303509  
H81      H      0.244960000000     0.517690000000     0.795020000000     0.0424532  
H82      H      0.244920000000     0.430530000000     0.785450000000     0.0332421  
H83      H      0.918770000000     0.543920000000     0.809300000000     0.104496   
H84      H      0.701700000000     0.517060000000     0.782680000000     0.105345   
H85      H      0.806700000000     0.600840000000     0.745780000000     0.0371739  
H86      H      0.805450000000     0.515020000000     0.728030000000     0.035929   
H87      H      0.806990000000     0.579270000000     0.863160000000     0.0400547  
H88      H      0.816680000000     0.493040000000     0.850040000000     0.0332976  
H89      H      0.908930000000     0.790010000000     0.977570000000     0.104497   
H90      H      0.687310000000     0.818790000000     0.982720000000     0.104822   
H91      H      0.795310000000     0.870730000000     0.020560000000     0.0378276  
H92      H      0.799280000000     0.862120000000     0.934760000000     0.0352837  
H93      H      0.802180000000     0.745680000000     0.030030000000     0.0392511  
H94      H      0.797590000000     0.740580000000     0.944160000000     0.0339478  
H95      H      0.775450000000     0.195140000000     0.043570000000     0.104282   
H96      H      0.823490000000     0.411800000000     0.980530000000     0.105768   
H97      H      0.797180000000     0.305950000000     0.094330000000     0.0207659  
H98      H      0.871560000000     0.310590000000     0.047010000000     0.0340213  
H99      H      0.729800000000     0.296000000000     0.994100000000     0.0408513  
H100     H      0.804280000000     0.300160000000     0.947050000000     0.0281129  
H101     H      0.316680000000     0.901920000000     0.087690000000     0.108777   
H102     H      0.282180000000     0.684730000000     0.076760000000     0.105639   
H103     H      0.242230000000     0.793450000000     0.119560000000     0.0297919  
H104     H      0.232220000000     0.794400000000     0.033520000000     0.038583   
H105     H      0.365250000000     0.794290000000     0.105370000000     0.0378185  
H106     H      0.354600000000     0.795040000000     0.019640000000     0.0433982  
H107     H      0.193420000000     0.312950000000     0.126070000000     0.104669   
H108     H      0.416470000000     0.283520000000     0.128590000000     0.0995726  
H109     H      0.301770000000     0.237350000000     0.166750000000     0.0272224  
H110     H      0.307520000000     0.233780000000     0.080840000000     0.034263   
H111     H      0.306670000000     0.358720000000     0.165050000000     0.0320409  
H112     H      0.301830000000     0.359830000000     0.079090000000     0.0422317  
H113     H      0.917470000000     0.053360000000     0.773780000000     0.104056   
H114     H      0.701250000000     0.085230000000     0.805340000000     0.10535    
H115     H      0.807220000000     0.993320000000     0.831020000000     0.0377684  
H116     H      0.802790000000     0.076230000000     0.859360000000     0.0386805  
H117     H      0.806390000000     0.029110000000     0.718100000000     0.0341467  
H118     H      0.814150000000     0.113520000000     0.741420000000     0.0274348  
H119     H      0.322010000000     0.117610000000     0.903770000000     0.106508   
H120     H      0.285300000000     0.108080000000     0.688010000000     0.105892   
H121     H      0.238290000000     0.076250000000     0.793220000000     0.0420227  
H122     H      0.248260000000     0.163250000000     0.798020000000     0.0329127  
H123     H      0.364460000000     0.065540000000     0.797520000000     0.0410379  
H124     H      0.369440000000     0.152840000000     0.791270000000     0.0369533  
H125     H      0.178760000000     0.087630000000     0.310690000000     0.108308   
H126     H      0.394190000000     0.040320000000     0.280380000000     0.104631   
H127     H      0.297980000000     0.068560000000     0.225150000000     0.0350977  
H128     H      0.289600000000     0.145210000000     0.267030000000     0.0239195  
H129     H      0.278850000000     0.012930000000     0.336620000000     0.0273357  
H130     H      0.289340000000     0.092750000000     0.371410000000     0.0405247  
H131     H      0.775550000000     0.010400000000     0.180160000000     0.104182   
H132     H      0.813820000000     0.022820000000     0.395280000000     0.10617    
H133     H      0.850110000000     0.964410000000     0.287000000000     0.0269692  
H134     H      0.860530000000     0.051420000000     0.288480000000     0.031256   
H135     H      0.727800000000     0.977070000000     0.291590000000     0.0308655  
H136     H      0.735520000000     0.064280000000     0.287150000000     0.0294851  
H137     H      0.066390000000     0.279730000000     0.683340000000     0.108357   
H138     H      0.062450000000     0.323670000000     0.896100000000     0.10785    
H139     H      0.126960000000     0.357570000000     0.784120000000     0.0359787  
H140     H      0.039460000000     0.366300000000     0.792080000000     0.037957   
H141     H      0.120940000000     0.239550000000     0.796790000000     0.0374176  
H142     H      0.033020000000     0.239560000000     0.788310000000     0.0366683  
H143     H      0.104520000000     0.690930000000     0.807670000000     0.104726   
H144     H      0.103190000000     0.910750000000     0.781990000000     0.104725   
H145     H      0.145770000000     0.802900000000     0.735870000000     0.03599    
H146     H      0.057760000000     0.803680000000     0.732650000000     0.0409045  
H147     H      0.141700000000     0.799670000000     0.857410000000     0.0369083  
H148     H      0.053630000000     0.798470000000     0.854970000000     0.04072    
H149     H      0.070430000000     0.783990000000     0.189250000000     0.10512    
H150     H      0.080580000000     0.826790000000     0.401510000000     0.104685   
H151     H      0.099110000000     0.871880000000     0.293750000000     0.0279834  
H152     H      0.011290000000     0.862040000000     0.292710000000     0.0270799  
H153     H      0.110610000000     0.747790000000     0.294540000000     0.0267686  
H154     H      0.022610000000     0.741700000000     0.299370000000     0.0293576  
H155     H      0.024910000000     0.196950000000     0.305050000000     0.107341   
H156     H      0.034500000000     0.415940000000     0.276620000000     0.107288   
H157     H      0.074270000000     0.306340000000     0.228550000000     0.0310711  
H158     H      0.986140000000     0.309550000000     0.230800000000     0.0297431  
H159     H      0.077730000000     0.303140000000     0.349900000000     0.0306441  
H160     H      0.989630000000     0.305320000000     0.352660000000     0.0304202  
N1       N      0.585310000000     0.379570000000     0.262480000000    -0.261441   
N2       N      0.612990000000     0.207310000000     0.323770000000    -0.28211    
N3       N      0.526170000000     0.764390000000     0.212020000000    -0.246991   
N4       N      0.537060000000     0.820490000000     0.384150000000    -0.271704   
N5       N      0.499890000000     0.892240000000     0.764120000000    -0.242367   
N6       N      0.503370000000     0.717020000000     0.827170000000    -0.24092    
N7       N      0.573850000000     0.281160000000     0.702550000000    -0.266741   
N8       N      0.610000000000     0.337200000000     0.869500000000    -0.261711   
N9       N      0.829610000000     0.386980000000     0.527340000000    -0.272001   
N10      N      0.774330000000     0.212170000000     0.511220000000    -0.283442   
N11      N      0.892380000000     0.771080000000     0.600300000000    -0.250315   
N12      N      0.715790000000     0.827480000000     0.584820000000    -0.269415   
N13      N      0.214530000000     0.338710000000     0.458210000000    -0.28173    
N14      N      0.385910000000     0.271910000000     0.470500000000    -0.271242   
N15      N      0.319000000000     0.894450000000     0.565760000000    -0.252889   
N16      N      0.283360000000     0.722890000000     0.518500000000    -0.273251   
N17      N      0.777820000000     0.593990000000     0.208950000000    -0.257972   
N18      N      0.832820000000     0.602360000000     0.381680000000    -0.271743   
N19      N      0.393100000000     0.515180000000     0.259990000000    -0.254791   
N20      N      0.219300000000     0.527200000000     0.321090000000    -0.284554   
N21      N      0.335330000000     0.474310000000     0.876850000000    -0.257812   
N22      N      0.278830000000     0.483440000000     0.704730000000    -0.262987   
N23      N      0.895230000000     0.550460000000     0.764980000000    -0.247537   
N24      N      0.723140000000     0.529300000000     0.826830000000    -0.251741   
N25      N      0.886110000000     0.835420000000     0.983960000000    -0.252152   
N26      N      0.710910000000     0.773880000000     0.989690000000    -0.244755   
N27      N      0.821100000000     0.218580000000     0.046590000000    -0.271857   
N28      N      0.780080000000     0.387920000000     0.993850000000    -0.2598     
N29      N      0.271530000000     0.880960000000     0.075000000000    -0.27584    
N30      N      0.327070000000     0.707360000000     0.066180000000    -0.249996   
N31      N      0.215950000000     0.267800000000     0.117450000000    -0.276137   
N32      N      0.393310000000     0.327810000000     0.117600000000    -0.258427   
N33      N      0.893640000000     0.048640000000     0.818180000000    -0.251028   
N34      N      0.721830000000     0.072700000000     0.760870000000    -0.266072   
N35      N      0.276170000000     0.111680000000     0.881670000000    -0.262641   
N36      N      0.331990000000     0.104680000000     0.708930000000    -0.246363   
N37      N      0.204230000000     0.086850000000     0.266940000000    -0.28771    
N38      N      0.373450000000     0.051380000000     0.325140000000    -0.27194    
N39      N      0.821990000000     0.012950000000     0.201680000000    -0.270659   
N40      N      0.766760000000     0.022510000000     0.374880000000    -0.282897   
N41      N      0.071080000000     0.326100000000     0.704160000000    -0.268841   
N42      N      0.067670000000     0.276930000000     0.876220000000    -0.268175   
N43      N      0.100290000000     0.714350000000     0.763110000000    -0.244609   
N44      N      0.097590000000     0.887810000000     0.826650000000    -0.245313   
N45      N      0.060930000000     0.830140000000     0.209010000000    -0.276219   
N46      N      0.070230000000     0.780930000000     0.381570000000    -0.275779   
N47      N      0.027490000000     0.219730000000     0.260030000000    -0.283021   
N48      N      0.034880000000     0.392620000000     0.321430000000    -0.284024   
O1       O      0.031760000000     0.209280000000     0.149050000000    -1.05114    
O2       O      0.066710000000     0.870580000000     0.106390000000    -0.801979   
O3       O      0.935350000000     0.021500000000     0.191060000000    -1.03934    
O4       O      0.106690000000     0.059130000000     0.219780000000    -1.10528    
O5       O      0.200180000000     0.080290000000     0.155880000000    -1.08152    
O6       O      0.865670000000     0.025190000000     0.099660000000    -0.79212    
O7       O      0.042660000000     0.940760000000     0.194320000000    -1.04387    
O8       O      0.027500000000     0.116690000000     0.216680000000    -1.07973    
O9       O      0.118860000000     0.990740000000     0.113760000000    -2.1172     
O10      O      0.968250000000     0.105770000000     0.107090000000    -2.11084    
O11      O      0.980130000000     0.964630000000     0.093150000000    -0.87789    
O12      O      0.061000000000     0.067420000000     0.058360000000    -2.59007    
O13      O      0.083070000000     0.898420000000     0.937700000000    -0.703026   
O14      O      0.048940000000     0.235100000000     0.977290000000    -0.951241   
O15      O      0.896040000000     0.947130000000     0.003340000000    -0.744315   
O16      O      0.230860000000     0.985480000000     0.070020000000    -0.989707   
O17      O      0.205160000000     0.158120000000     0.091130000000    -1.05529    
O18      O      0.867120000000     0.116960000000     0.034500000000    -0.78726    
O19      O      0.994760000000     0.063810000000     0.864240000000    -0.618011   
O20      O      0.164290000000     0.092700000000     0.890650000000    -0.64829    
O21      O      0.900670000000     0.041010000000     0.929520000000    -0.72438    
O22      O      0.232670000000     0.091470000000     0.982810000000    -0.942649   
O23      O      0.989780000000     0.876200000000     0.005560000000    -0.730134   
O24      O      0.935540000000     0.209010000000     0.053030000000    -0.926627   
O25      O      0.112610000000     0.228120000000     0.090900000000    -1.01545    
O26      O      0.161630000000     0.894650000000     0.049030000000    -0.767515   
O27      O      0.087780000000     0.991730000000     0.868680000000    -0.599023   
O28      O      0.071160000000     0.165280000000     0.888830000000    -0.655369   
O29      O      0.119480000000     0.139200000000     0.001690000000    -2.01135    
O30      O      0.010090000000     0.995980000000     0.967130000000    -1.6231     
O31      O      0.981780000000     0.121590000000     0.969860000000    -1.25091    
O32      O      0.139750000000     0.000430000000     0.976620000000    -1.25445    
O33      O      0.037700000000     0.401100000000     0.432560000000    -1.05733    
O34      O      0.076930000000     0.738010000000     0.483550000000    -0.797185   
O35      O      0.945810000000     0.590590000000     0.393350000000    -1.02899    
O36      O      0.119370000000     0.553040000000     0.366490000000    -1.08185    
O37      O      0.210870000000     0.528770000000     0.432110000000    -1.08033    
O38      O      0.874400000000     0.585600000000     0.483550000000    -0.783962   
O39      O      0.052750000000     0.670040000000     0.394030000000    -1.04851    
O40      O      0.037960000000     0.494940000000     0.366570000000    -1.09176    
O41      O      0.128250000000     0.617180000000     0.474480000000    -2.11427    
O42      O      0.976020000000     0.503970000000     0.475510000000    -2.12874    
O43      O      0.989340000000     0.643900000000     0.493210000000    -0.877896   
O44      O      0.068370000000     0.540210000000     0.526830000000    -2.59195    
O45      O      0.089340000000     0.705820000000     0.651650000000    -0.70724    
O46      O      0.053830000000     0.370640000000     0.603780000000    -0.969677   
O47      O      0.903140000000     0.659650000000     0.581550000000    -0.738663   
O48      O      0.240090000000     0.619260000000     0.521750000000    -0.990162   
O49      O      0.208920000000     0.447090000000     0.491710000000    -1.05879    
O50      O      0.873570000000     0.489790000000     0.545090000000    -0.763577   
O51      O      0.997540000000     0.538690000000     0.719960000000    -0.597705   
O52      O      0.168060000000     0.508410000000     0.695600000000    -0.631298   
O53      O      0.904500000000     0.562880000000     0.653700000000    -0.704428   
O54      O      0.237640000000     0.509400000000     0.604220000000    -0.954265   
O55      O      0.997130000000     0.730400000000     0.581680000000    -0.718577   
O56      O      0.942890000000     0.398770000000     0.525840000000    -0.979839   
O57      O      0.114570000000     0.379720000000     0.489050000000    -1.0788     
O58      O      0.171770000000     0.710970000000     0.541890000000    -0.751791   
O59      O      0.091600000000     0.611080000000     0.718890000000    -0.587676   
O60      O      0.074610000000     0.437990000000     0.694350000000    -0.643804   
O61      O      0.124750000000     0.466010000000     0.582960000000    -2.03515    
O62      O      0.016210000000     0.609630000000     0.618860000000    -1.58847    
O63      O      0.986590000000     0.484320000000     0.612950000000    -1.23992    
O64      O      0.146230000000     0.603760000000     0.611680000000    -1.23004    
O65      O      0.726550000000     0.030230000000     0.478030000000    -1.05744    
O66      O      0.386860000000     0.063780000000     0.435280000000    -0.784891   
O67      O      0.550530000000     0.932790000000     0.393840000000    -1.0205     
O68      O      0.590790000000     0.106210000000     0.368300000000    -1.06565    
O69      O      0.594700000000     0.200390000000     0.433680000000    -1.08516    
O70      O      0.533000000000     0.865970000000     0.485630000000    -0.794472   
O71      O      0.476680000000     0.036310000000     0.367550000000    -1.03008    
O72      O      0.653920000000     0.025710000000     0.389580000000    -1.08432    
O73      O      0.503740000000     0.116700000000     0.456830000000    -2.13052    
O74      O      0.615170000000     0.968170000000     0.494380000000    -2.08734    
O75      O      0.473960000000     0.979410000000     0.474820000000    -0.868134   
O76      O      0.565180000000     0.061110000000     0.529820000000    -2.5838     
O77      O      0.371700000000     0.087210000000     0.606270000000    -0.706082   
O78      O      0.706890000000     0.052310000000     0.651740000000    -0.930583   
O79      O      0.433680000000     0.900490000000     0.563690000000    -0.729995   
O80      O      0.487070000000     0.229690000000     0.497040000000    -0.992613   
O81      O      0.661380000000     0.201960000000     0.512800000000    -1.10893    
O82      O      0.611210000000     0.870180000000     0.570970000000    -0.758451   
O83      O      0.517530000000     0.995340000000     0.720060000000    -0.570185   
O84      O      0.551940000000     0.169710000000     0.695400000000    -0.621848   
O85      O      0.512320000000     0.900590000000     0.652810000000    -0.708555   
O86      O      0.571770000000     0.233990000000     0.602500000000    -0.989271   
O87      O      0.365680000000     0.993570000000     0.541790000000    -0.744317   
O88      O      0.704420000000     0.939800000000     0.571820000000    -0.955385   
O89      O      0.729910000000     0.111340000000     0.534640000000    -1.0578     
O90      O      0.393020000000     0.161440000000     0.497740000000    -0.755155   
O91      O      0.444660000000     0.091520000000     0.696350000000    -0.592476   
O92      O      0.617180000000     0.076580000000     0.720660000000    -0.641055   
O93      O      0.621210000000     0.121460000000     0.600960000000    -2.02742    
O94      O      0.473760000000     0.012510000000     0.603550000000    -1.58596    
O95      O      0.596880000000     0.985260000000     0.631370000000    -1.24036    
O96      O      0.480130000000     0.140980000000     0.592280000000    -1.23437    
O97      O      0.401990000000     0.436110000000     0.086720000000    -0.831266   
O98      O      0.734760000000     0.489120000000     0.008520000000    -0.826685   
O99      O      0.597100000000     0.373960000000     0.972390000000    -0.942418   
O100     O      0.576280000000     0.390520000000     0.151600000000    -0.927787   
O101     O      0.577930000000     0.482800000000     0.218970000000    -0.825704   
O102     O      0.568830000000     0.441710000000     0.885250000000    -0.809788   
O103     O      0.671080000000     0.394920000000     0.026920000000    -0.903764   
O104     O      0.496320000000     0.370000000000     0.092850000000    -0.911722   
O105     O      0.644790000000     0.492080000000     0.107780000000    -1.6788     
O106     O      0.492070000000     0.450180000000     0.992750000000    -1.6722     
O107     O      0.567380000000     0.530910000000     0.030410000000    -1.79628    
O108     O      0.546620000000     0.529290000000     0.057610000000    -0.246853   
O109     O      0.703550000000     0.662420000000     0.010960000000    -0.724563   
O110     O      0.372970000000     0.604700000000     0.062300000000    -0.748947   
O111     O      0.619300000000     0.523840000000     0.869000000000    -0.781834   
O112     O      0.665930000000     0.575780000000     0.197000000000    -0.79756    
O113     O      0.494430000000     0.537880000000     0.216660000000    -0.79989    
O114     O      0.444870000000     0.503400000000     0.888280000000    -0.794382   
O115     O      0.517140000000     0.705380000000     0.938050000000    -0.583612   
O116     O      0.527510000000     0.724870000000     0.108290000000    -0.593654   
O117     O      0.516690000000     0.612620000000     0.869330000000    -0.710093   
O118     O      0.550650000000     0.654430000000     0.196370000000    -0.735621   
O119     O      0.709900000000     0.548570000000     0.936170000000    -0.760413   
O120     O      0.375890000000     0.495750000000     0.978450000000    -0.791172   
O121     O      0.403270000000     0.516380000000     0.148940000000    -0.78695    
O122     O      0.735190000000     0.581720000000     0.106780000000    -0.787965   
O123     O      0.608040000000     0.729070000000     0.007370000000    -0.590142   
O124     O      0.437810000000     0.699250000000     0.042510000000    -0.598456   
O125     O      0.486490000000     0.602930000000     0.108250000000    -1.56678    
O126     O      0.600130000000     0.608070000000     0.961610000000    -1.48904    
O127     O      0.464100000000     0.596200000000     0.970500000000    -1.19378    
O128     O      0.622950000000     0.639230000000     0.090150000000    -1.1961     
Tb1      Tb     0.032970000000     0.036700000000     0.147520000000     6.53037    
Tb2      Tb     0.068180000000     0.945100000000     0.032890000000     4.28107    
Tb3      Tb     0.034450000000     0.163060000000     0.054080000000     6.17015    
Tb4      Tb     0.942150000000     0.041360000000     0.027740000000     4.38119    
Tb5      Tb     0.161070000000     0.066070000000     0.059050000000     6.41323    
Tb6      Tb     0.070890000000     0.071640000000     0.937440000000     3.284      
Tb7      Tb     0.042670000000     0.572980000000     0.437840000000     6.50059    
Tb8      Tb     0.076430000000     0.661440000000     0.555330000000     4.24483    
Tb9      Tb     0.040320000000     0.444900000000     0.528680000000     6.43527    
Tb10     Tb     0.948890000000     0.565970000000     0.556180000000     4.27962    
Tb11     Tb     0.168370000000     0.539730000000     0.528000000000     6.45132    
Tb12     Tb     0.075640000000     0.532670000000     0.648060000000     3.16662    
Tb13     Tb     0.557810000000     0.031120000000     0.436800000000     6.39042    
Tb14     Tb     0.440090000000     0.068650000000     0.525970000000     4.25756    
Tb15     Tb     0.657450000000     0.035920000000     0.558310000000     6.28586    
Tb16     Tb     0.533180000000     0.943570000000     0.557310000000     4.29235    
Tb17     Tb     0.563720000000     0.160470000000     0.526440000000     6.59593    
Tb18     Tb     0.539830000000     0.073830000000     0.649380000000     3.12985    
Tb19     Tb     0.574670000000     0.434900000000     0.055240000000     5.22883    
Tb20     Tb     0.662960000000     0.563880000000     0.030310000000     4.27686    
Tb21     Tb     0.446110000000     0.526410000000     0.052570000000     4.52031    
Tb22     Tb     0.537180000000     0.529630000000     0.935910000000     4.27075    
Tb23     Tb     0.572150000000     0.560740000000     0.147600000000     4.53636    
Tb24     Tb     0.534190000000     0.654380000000     0.029510000000     3.01518    


