data_structure

_audit_creation_method RASPA-1.0
_audit_creation_date 2023-5-19
_audit_author_name 'Poobodin Mano'

_cell_length_a    21.5394
_cell_length_b    21.5346
_cell_length_c    21.5233
_cell_angle_alpha 90
_cell_angle_beta  90
_cell_angle_gamma 90
_cell_volume      9983.42

_symmetry_cell_setting          triclinic
_symmetry_space_group_name_Hall 'P 1'
_symmetry_space_group_name_H-M  'P 1'
_symmetry_Int_Tables_number     1

_symmetry_equiv_pos_as_xyz 'x,y,z'

loop_
_atom_site_label
_atom_site_type_symbol
_atom_site_fract_x
_atom_site_fract_y
_atom_site_fract_z
_atom_site_charge
C1       C      0.977230000000     0.137440000000     0.137480000000     0.394864   
C2       C      0.981510000000     0.820460000000     0.137770000000     0.420147   
C3       C      0.821050000000     0.978960000000     0.138360000000     0.419244   
C4       C      0.138080000000     0.978840000000     0.137180000000     0.419753   
C5       C      0.977420000000     0.819890000000     0.820290000000     0.395815   
C6       C      0.979750000000     0.137400000000     0.819770000000     0.395707   
C7       C      0.821050000000     0.819000000000     0.977670000000     0.419984   
C8       C      0.138100000000     0.820190000000     0.979860000000     0.420497   
C9       C      0.137270000000     0.137890000000     0.976520000000     0.395957   
C10      C      0.819270000000     0.136620000000     0.980910000000     0.420357   
C11      C      0.819770000000     0.977560000000     0.820450000000     0.395388   
C12      C      0.136880000000     0.979530000000     0.819020000000     0.420678   
C13      C      0.976810000000     0.320330000000     0.319630000000     0.420879   
C14      C      0.980760000000     0.637440000000     0.319710000000     0.396061   
C15      C      0.819820000000     0.477400000000     0.320360000000     0.396226   
C16      C      0.136940000000     0.480470000000     0.319100000000     0.421346   
C17      C      0.977790000000     0.638050000000     0.637100000000     0.420426   
C18      C      0.980500000000     0.320510000000     0.637770000000     0.420088   
C19      C      0.820630000000     0.638190000000     0.479370000000     0.420268   
C20      C      0.138050000000     0.637410000000     0.477600000000     0.396186   
C21      C      0.137460000000     0.319850000000     0.478920000000     0.39662    
C22      C      0.819770000000     0.320550000000     0.478640000000     0.420634   
C23      C      0.820580000000     0.480700000000     0.637780000000     0.395345   
C24      C      0.137970000000     0.477140000000     0.637270000000     0.420561   
C25      C      0.638180000000     0.978060000000     0.320430000000     0.39628    
C26      C      0.320970000000     0.980420000000     0.319230000000     0.395607   
C27      C      0.480030000000     0.820820000000     0.319180000000     0.396292   
C28      C      0.478470000000     0.137930000000     0.320400000000     0.396575   
C29      C      0.319790000000     0.977820000000     0.636990000000     0.395296   
C30      C      0.636850000000     0.979000000000     0.638420000000     0.420713   
C31      C      0.319840000000     0.820600000000     0.478700000000     0.420561   
C32      C      0.320630000000     0.138060000000     0.477730000000     0.419559   
C33      C      0.638000000000     0.137380000000     0.480360000000     0.395436   
C34      C      0.637440000000     0.819960000000     0.477840000000     0.396161   
C35      C      0.477750000000     0.819130000000     0.636620000000     0.419651   
C36      C      0.479750000000     0.137020000000     0.637830000000     0.395165   
C37      C      0.319310000000     0.320890000000     0.976920000000     0.420051   
C38      C      0.637250000000     0.319630000000     0.981400000000     0.395606   
C39      C      0.478580000000     0.319030000000     0.820840000000     0.421239   
C40      C      0.478760000000     0.320850000000     0.138450000000     0.420516   
C41      C      0.638130000000     0.637060000000     0.977430000000     0.395965   
C42      C      0.321020000000     0.638230000000     0.979480000000     0.3957     
C43      C      0.638680000000     0.479740000000     0.820890000000     0.421348   
C44      C      0.636770000000     0.477150000000     0.138490000000     0.420373   
C45      C      0.319840000000     0.481120000000     0.136990000000     0.394933   
C46      C      0.321130000000     0.477100000000     0.819210000000     0.395925   
C47      C      0.480310000000     0.637090000000     0.819590000000     0.395702   
C48      C      0.478380000000     0.637840000000     0.137300000000     0.419642   
C49      C      0.478440000000     0.168110000000     0.213690000000     0.0226982  
C50      C      0.478470000000     0.244880000000     0.291610000000    -0.0716069  
C51      C      0.478600000000     0.214270000000     0.168180000000     0.0469612  
C52      C      0.478660000000     0.291220000000     0.246220000000     0.377097   
C53      C      0.479850000000     0.790750000000     0.212360000000     0.0204155  
C54      C      0.479320000000     0.713980000000     0.290280000000    -0.0744842  
C55      C      0.479250000000     0.744540000000     0.166840000000     0.0453842  
C56      C      0.478700000000     0.667650000000     0.244950000000     0.373477   
C57      C      0.479500000000     0.743800000000     0.789440000000     0.0224521  
C58      C      0.479450000000     0.665980000000     0.712590000000    -0.0756445  
C59      C      0.478610000000     0.789340000000     0.743280000000     0.0459767  
C60      C      0.478540000000     0.711390000000     0.666250000000     0.370764   
C61      C      0.479780000000     0.243720000000     0.668000000000     0.0227552  
C62      C      0.479170000000     0.165900000000     0.744830000000    -0.0738841  
C63      C      0.479340000000     0.289260000000     0.714170000000     0.0495231  
C64      C      0.478700000000     0.211300000000     0.791180000000     0.374514   
C65      C      0.744700000000     0.167610000000     0.480010000000     0.021738   
C66      C      0.666810000000     0.244320000000     0.479930000000    -0.0744288  
C67      C      0.790170000000     0.213850000000     0.479380000000     0.0473063  
C68      C      0.712130000000     0.290710000000     0.479300000000     0.373922   
C69      C      0.667680000000     0.713230000000     0.478090000000     0.025004   
C70      C      0.744360000000     0.791150000000     0.478540000000    -0.0715495  
C71      C      0.713930000000     0.667760000000     0.478670000000     0.0501604  
C72      C      0.790760000000     0.745840000000     0.479110000000     0.37619    
C73      C      0.167690000000     0.213110000000     0.478500000000     0.0239739  
C74      C      0.244380000000     0.291020000000     0.478390000000    -0.0741306  
C75      C      0.213940000000     0.167640000000     0.478030000000     0.0471913  
C76      C      0.290770000000     0.245710000000     0.477930000000     0.372126   
C77      C      0.244760000000     0.667650000000     0.477820000000     0.0250504  
C78      C      0.166880000000     0.744360000000     0.477980000000    -0.071566   
C79      C      0.290240000000     0.713890000000     0.478240000000     0.0488316  
C80      C      0.212200000000     0.790750000000     0.478410000000     0.378244   
C81      C      0.789580000000     0.476660000000     0.213640000000     0.0249027  
C82      C      0.712870000000     0.476510000000     0.291590000000    -0.0703791  
C83      C      0.743370000000     0.476580000000     0.168150000000     0.0510747  
C84      C      0.666490000000     0.476430000000     0.246230000000     0.378862   
C85      C      0.289680000000     0.481560000000     0.243740000000     0.0246538  
C86      C      0.212900000000     0.481640000000     0.165870000000    -0.0710525  
C87      C      0.243530000000     0.481350000000     0.289310000000     0.0532258  
C88      C      0.166580000000     0.481440000000     0.211310000000     0.378564   
C89      C      0.290960000000     0.476300000000     0.712370000000     0.0231523  
C90      C      0.214250000000     0.476430000000     0.790290000000    -0.0717631  
C91      C      0.244710000000     0.476310000000     0.666830000000     0.0483268  
C92      C      0.167880000000     0.476400000000     0.744950000000     0.377851   
C93      C      0.713920000000     0.480910000000     0.668010000000     0.0232854  
C94      C      0.791760000000     0.480990000000     0.744820000000    -0.0732934  
C95      C      0.668420000000     0.480620000000     0.714210000000     0.04978    
C96      C      0.746380000000     0.480710000000     0.791200000000     0.376194   
C97      C      0.668320000000     0.743730000000     0.976780000000     0.0220513  
C98      C      0.745080000000     0.665880000000     0.977000000000    -0.0737336  
C99      C      0.714480000000     0.789250000000     0.976870000000     0.0460828  
C100     C      0.791410000000     0.711270000000     0.977060000000     0.374219   
C101     C      0.743960000000     0.289450000000     0.981670000000     0.0245473  
C102     C      0.666160000000     0.212660000000     0.982350000000    -0.0731975  
C103     C      0.789500000000     0.243270000000     0.981520000000     0.0502173  
C104     C      0.711560000000     0.166310000000     0.982230000000     0.374458   
C105     C      0.290980000000     0.745030000000     0.979990000000     0.0200781  
C106     C      0.214190000000     0.667200000000     0.980260000000    -0.0744064  
C107     C      0.244790000000     0.790570000000     0.980110000000     0.045678   
C108     C      0.167880000000     0.712560000000     0.980410000000     0.374553   
C109     C      0.243960000000     0.168100000000     0.976000000000     0.0233594  
C110     C      0.166150000000     0.244890000000     0.975740000000    -0.0719036  
C111     C      0.289500000000     0.214270000000     0.976130000000     0.0468221  
C112     C      0.211570000000     0.291230000000     0.975830000000     0.375504   
C113     C      0.789610000000     0.978070000000     0.713700000000     0.0224312  
C114     C      0.712840000000     0.977850000000     0.791590000000    -0.0742756  
C115     C      0.743450000000     0.978600000000     0.668160000000     0.0482439  
C116     C      0.666510000000     0.978390000000     0.746190000000     0.374065   
C117     C      0.289600000000     0.978120000000     0.743710000000     0.0207875  
C118     C      0.212840000000     0.978510000000     0.665810000000    -0.0740119  
C119     C      0.243450000000     0.978760000000     0.789250000000     0.0472167  
C120     C      0.166510000000     0.979130000000     0.711230000000     0.375064   
C121     C      0.290940000000     0.980160000000     0.212380000000     0.0206088  
C122     C      0.214140000000     0.980000000000     0.290240000000    -0.0729006  
C123     C      0.244760000000     0.979580000000     0.166810000000     0.0458888  
C124     C      0.167840000000     0.979400000000     0.244860000000     0.376171   
C125     C      0.668350000000     0.978220000000     0.213690000000     0.0231669  
C126     C      0.745120000000     0.978250000000     0.291570000000    -0.0726788  
C127     C      0.714490000000     0.978570000000     0.168150000000     0.0467765  
C128     C      0.791450000000     0.978630000000     0.246150000000     0.374073   
C129     C      0.980480000000     0.167580000000     0.712960000000     0.0224307  
C130     C      0.980770000000     0.244330000000     0.790870000000    -0.0722727  
C131     C      0.980710000000     0.213810000000     0.667430000000     0.0487456  
C132     C      0.981040000000     0.290700000000     0.745500000000     0.375848   
C133     C      0.977410000000     0.713150000000     0.790100000000     0.0281816  
C134     C      0.976440000000     0.791030000000     0.713320000000    -0.0704798  
C135     C      0.977510000000     0.667650000000     0.743850000000     0.0534417  
C136     C      0.976540000000     0.745690000000     0.666920000000     0.377997   
C137     C      0.981410000000     0.667580000000     0.212920000000     0.028364   
C138     C      0.982280000000     0.744340000000     0.290840000000    -0.069423   
C139     C      0.981670000000     0.713780000000     0.167400000000     0.0532251  
C140     C      0.982540000000     0.790690000000     0.245480000000     0.380995   
C141     C      0.976660000000     0.167500000000     0.244310000000     0.0233039  
C142     C      0.976080000000     0.244330000000     0.166470000000    -0.0727245  
C143     C      0.976510000000     0.213670000000     0.289890000000     0.0518889  
C144     C      0.975930000000     0.290640000000     0.211890000000     0.37561    
F1       F      0.478800000000     0.351170000000     0.266020000000    -0.416609   
F2       F      0.478140000000     0.607740000000     0.264860000000    -0.422605   
F3       F      0.478050000000     0.691620000000     0.606260000000    -0.443445   
F4       F      0.478170000000     0.191520000000     0.851170000000    -0.440044   
F5       F      0.692250000000     0.350630000000     0.478930000000    -0.436984   
F6       F      0.850650000000     0.765740000000     0.479700000000    -0.419295   
F7       F      0.350670000000     0.265610000000     0.477580000000    -0.439474   
F8       F      0.192320000000     0.850670000000     0.478710000000    -0.428968   
F9       F      0.606580000000     0.476180000000     0.266080000000    -0.407948   
F10      F      0.106640000000     0.481490000000     0.191510000000    -0.420163   
F11      F      0.107980000000     0.476280000000     0.764870000000    -0.41776    
F12      F      0.766180000000     0.480740000000     0.851180000000    -0.434223   
F13      F      0.851350000000     0.691480000000     0.977100000000    -0.432175   
F14      F      0.691770000000     0.106370000000     0.982630000000    -0.44019    
F15      F      0.107970000000     0.692690000000     0.980720000000    -0.430568   
F16      F      0.191800000000     0.351190000000     0.975630000000    -0.429777   
F17      F      0.606590000000     0.978570000000     0.766000000000    -0.440766   
F18      F      0.106580000000     0.979670000000     0.691430000000    -0.435953   
F19      F      0.107930000000     0.978990000000     0.264740000000    -0.417214   
F20      F      0.851390000000     0.978800000000     0.265930000000    -0.420872   
F21      F      0.981460000000     0.350620000000     0.765380000000    -0.419864   
F22      F      0.975950000000     0.765560000000     0.606970000000    -0.418487   
F23      F      0.983270000000     0.850620000000     0.265340000000    -0.404864   
F24      F      0.975430000000     0.350580000000     0.192060000000    -0.424674   
H1       H      0.890770000000     0.889470000000     0.068140000000     0.219002   
H2       H      0.067880000000     0.068130000000     0.067060000000     0.215898   
H3       H      0.889300000000     0.067280000000     0.890170000000     0.215679   
H4       H      0.067730000000     0.890060000000     0.889550000000     0.217069   
H5       H      0.889940000000     0.568040000000     0.389760000000     0.216943   
H6       H      0.067380000000     0.389950000000     0.389480000000     0.216735   
H7       H      0.890240000000     0.390380000000     0.567860000000     0.216377   
H8       H      0.068270000000     0.567780000000     0.567330000000     0.217769   
H9       H      0.390230000000     0.890540000000     0.389160000000     0.21603    
H10      H      0.568290000000     0.067840000000     0.390310000000     0.215084   
H11      H      0.567350000000     0.889550000000     0.567490000000     0.216952   
H12      H      0.390060000000     0.067600000000     0.567630000000     0.216162   
H13      H      0.567980000000     0.389260000000     0.890750000000     0.216703   
H14      H      0.389220000000     0.390510000000     0.067680000000     0.217893   
H15      H      0.390870000000     0.567620000000     0.889190000000     0.213731   
H16      H      0.567850000000     0.567700000000     0.067860000000     0.21709    
H17      H      0.478640000000     0.199310000000     0.120080000000     0.0442189  
H18      H      0.478370000000     0.120170000000     0.198290000000     0.0456354  
H19      H      0.478440000000     0.259490000000     0.339830000000     0.116538   
H20      H      0.479280000000     0.759430000000     0.118720000000     0.0372887  
H21      H      0.480250000000     0.838700000000     0.197000000000     0.0429492  
H22      H      0.479280000000     0.699330000000     0.338480000000     0.105614   
H23      H      0.478360000000     0.837400000000     0.758270000000     0.0498436  
H24      H      0.479820000000     0.759160000000     0.837410000000     0.0455833  
H25      H      0.479700000000     0.617800000000     0.697940000000     0.0984578  
H26      H      0.479450000000     0.337330000000     0.699190000000     0.04391    
H27      H      0.480160000000     0.259090000000     0.620030000000     0.060188   
H28      H      0.479060000000     0.117710000000     0.759470000000     0.110539   
H29      H      0.838250000000     0.198950000000     0.479220000000     0.0421767  
H30      H      0.760090000000     0.119670000000     0.480230000000     0.0498677  
H31      H      0.618630000000     0.258920000000     0.480080000000     0.106753   
H32      H      0.699050000000     0.619670000000     0.478670000000     0.0503476  
H33      H      0.619760000000     0.697820000000     0.477730000000     0.0619836  
H34      H      0.758950000000     0.839340000000     0.478560000000     0.106142   
H35      H      0.199050000000     0.119540000000     0.477940000000     0.0500816  
H36      H      0.119770000000     0.197710000000     0.478690000000     0.0507462  
H37      H      0.258980000000     0.339210000000     0.478470000000     0.100944   
H38      H      0.338330000000     0.698990000000     0.478310000000     0.0543973  
H39      H      0.260150000000     0.619710000000     0.477620000000     0.0506999  
H40      H      0.118700000000     0.758970000000     0.477920000000     0.121444   
H41      H      0.758300000000     0.476620000000     0.120040000000     0.0509865  
H42      H      0.837500000000     0.476740000000     0.198220000000     0.0657279  
H43      H      0.698290000000     0.476440000000     0.339820000000     0.116564   
H44      H      0.258510000000     0.481250000000     0.337400000000     0.0480559  
H45      H      0.337610000000     0.481590000000     0.259120000000     0.0746642  
H46      H      0.198280000000     0.481760000000     0.117660000000     0.117999   
H47      H      0.259580000000     0.476270000000     0.618710000000     0.0437634  
H48      H      0.338890000000     0.476270000000     0.696980000000     0.0492586  
H49      H      0.199620000000     0.476420000000     0.838500000000     0.118949   
H50      H      0.620360000000     0.480490000000     0.699240000000     0.0446461  
H51      H      0.698540000000     0.480960000000     0.620040000000     0.0598273  
H52      H      0.839940000000     0.481140000000     0.759430000000     0.117255   
H53      H      0.699510000000     0.837320000000     0.976810000000     0.0435183  
H54      H      0.620390000000     0.759120000000     0.976670000000     0.0449874  
H55      H      0.759690000000     0.617690000000     0.977030000000     0.113891   
H56      H      0.837560000000     0.258240000000     0.981190000000     0.0494218  
H57      H      0.759320000000     0.337390000000     0.981430000000     0.0622911  
H58      H      0.617980000000     0.198030000000     0.982700000000     0.109659   
H59      H      0.259700000000     0.838660000000     0.980030000000     0.0367907  
H60      H      0.338920000000     0.760360000000     0.979840000000     0.0425757  
H61      H      0.199530000000     0.619030000000     0.980370000000     0.110374   
H62      H      0.337560000000     0.199280000000     0.976280000000     0.0503814  
H63      H      0.259330000000     0.120160000000     0.976070000000     0.0459081  
H64      H      0.117980000000     0.259520000000     0.975560000000     0.108732   
H65      H      0.758400000000     0.978850000000     0.620060000000     0.0450576  
H66      H      0.837540000000     0.977990000000     0.698310000000     0.0537479  
H67      H      0.698220000000     0.977610000000     0.839800000000     0.109465   
H68      H      0.258420000000     0.978800000000     0.837340000000     0.0388546  
H69      H      0.337530000000     0.977770000000     0.759110000000     0.0493334  
H70      H      0.198230000000     0.978470000000     0.617600000000     0.1139     
H71      H      0.259680000000     0.979470000000     0.118700000000     0.0371758  
H72      H      0.338890000000     0.980400000000     0.197040000000     0.0427741  
H73      H      0.199480000000     0.980090000000     0.338440000000     0.115329   
H74      H      0.699510000000     0.978680000000     0.120050000000     0.0507857  
H75      H      0.620420000000     0.978090000000     0.198310000000     0.0457099  
H76      H      0.759740000000     0.978150000000     0.339780000000     0.104449   
H77      H      0.980670000000     0.198900000000     0.619320000000     0.0426867  
H78      H      0.980280000000     0.119630000000     0.697580000000     0.0589174  
H79      H      0.980860000000     0.258950000000     0.839080000000     0.107314   
H80      H      0.977950000000     0.619560000000     0.758760000000     0.0637643  
H81      H      0.977770000000     0.697770000000     0.838070000000     0.0756201  
H82      H      0.975980000000     0.839220000000     0.698690000000     0.114639   
H83      H      0.981400000000     0.698870000000     0.119290000000     0.0689221  
H84      H      0.980990000000     0.619630000000     0.197540000000     0.0687235  
H85      H      0.982580000000     0.758960000000     0.339050000000     0.122176   
H86      H      0.976700000000     0.198710000000     0.337990000000     0.0457415  
H87      H      0.976940000000     0.119540000000     0.259640000000     0.0737207  
H88      H      0.975860000000     0.258990000000     0.118270000000     0.106195   
N1       N      0.478400000000     0.183340000000     0.275490000000    -0.151177   
N2       N      0.478710000000     0.275980000000     0.184100000000    -0.21945    
N3       N      0.479840000000     0.775520000000     0.274160000000    -0.152397   
N4       N      0.478690000000     0.682830000000     0.182820000000    -0.220244   
N5       N      0.479890000000     0.682030000000     0.774180000000    -0.152852   
N6       N      0.478170000000     0.773470000000     0.681520000000    -0.219735   
N7       N      0.479660000000     0.181950000000     0.683250000000    -0.149528   
N8       N      0.478810000000     0.273390000000     0.775930000000    -0.221219   
N9       N      0.682930000000     0.182770000000     0.480220000000    -0.15148    
N10      N      0.774220000000     0.275570000000     0.479030000000    -0.220935   
N11      N      0.682820000000     0.775020000000     0.478040000000    -0.150671   
N12      N      0.775640000000     0.683740000000     0.479140000000    -0.219146   
N13      N      0.182840000000     0.274900000000     0.478680000000    -0.152114   
N14      N      0.275640000000     0.183610000000     0.477810000000    -0.220083   
N15      N      0.182990000000     0.682810000000     0.477710000000    -0.150089   
N16      N      0.274290000000     0.775610000000     0.478520000000    -0.219526   
N17      N      0.774410000000     0.476810000000     0.275450000000    -0.149088   
N18      N      0.681670000000     0.476660000000     0.184110000000    -0.218741   
N19      N      0.274450000000     0.481530000000     0.181940000000    -0.147492   
N20      N      0.181820000000     0.481120000000     0.273430000000    -0.220149   
N21      N      0.275790000000     0.476560000000     0.774180000000    -0.150403   
N22      N      0.183000000000     0.476560000000     0.682800000000    -0.219691   
N23      N      0.775680000000     0.480940000000     0.683220000000    -0.149009   
N24      N      0.684310000000     0.480370000000     0.775970000000    -0.221171   
N25      N      0.683540000000     0.681960000000     0.977010000000    -0.15122    
N26      N      0.776190000000     0.773360000000     0.977160000000    -0.22045    
N27      N      0.682190000000     0.274230000000     0.981890000000    -0.149511   
N28      N      0.773640000000     0.181530000000     0.981610000000    -0.22059    
N29      N      0.275730000000     0.683260000000     0.979930000000    -0.15181    
N30      N      0.183080000000     0.774650000000     0.980180000000    -0.220924   
N31      N      0.182190000000     0.183320000000     0.976010000000    -0.151923   
N32      N      0.273650000000     0.276000000000     0.976240000000    -0.219237   
N33      N      0.774380000000     0.977730000000     0.775500000000    -0.150568   
N34      N      0.681740000000     0.978740000000     0.684060000000    -0.221136   
N35      N      0.274380000000     0.978040000000     0.681910000000    -0.150469   
N36      N      0.181740000000     0.979240000000     0.773350000000    -0.221398   
N37      N      0.275690000000     0.980310000000     0.274180000000    -0.151237   
N38      N      0.183050000000     0.979200000000     0.182740000000    -0.219993   
N39      N      0.683580000000     0.978090000000     0.275500000000    -0.152713   
N40      N      0.776200000000     0.978780000000     0.184030000000    -0.218368   
N41      N      0.980350000000     0.182760000000     0.774770000000    -0.150541   
N42      N      0.980830000000     0.275540000000     0.683370000000    -0.219957   
N43      N      0.977030000000     0.774930000000     0.774900000000    -0.148342   
N44      N      0.977250000000     0.683600000000     0.682100000000    -0.218258   
N45      N      0.981520000000     0.682790000000     0.274730000000    -0.148759   
N46      N      0.982010000000     0.775500000000     0.183350000000    -0.216508   
N47      N      0.976620000000     0.182770000000     0.182510000000    -0.148742   
N48      N      0.976340000000     0.275400000000     0.274010000000    -0.220358   
O1       O      0.977440000000     0.154690000000     0.079820000000    -0.364389   
O2       O      0.980890000000     0.802790000000     0.080220000000    -0.354627   
O3       O      0.878750000000     0.979170000000     0.155020000000    -0.321172   
O4       O      0.080470000000     0.978880000000     0.154090000000    -0.320549   
O5       O      0.155650000000     0.978880000000     0.079570000000    -0.375016   
O6       O      0.803240000000     0.978540000000     0.080840000000    -0.365612   
O7       O      0.981190000000     0.878130000000     0.154590000000    -0.314065   
O8       O      0.977890000000     0.079910000000     0.155000000000    -0.348081   
O9       O      0.042400000000     0.916200000000     0.041400000000    -0.510154   
O10      O      0.915980000000     0.041410000000     0.041620000000    -0.510561   
O11      O      0.916380000000     0.915470000000     0.042090000000    -0.665153   
O12      O      0.042090000000     0.042070000000     0.041230000000    -0.656746   
O13      O      0.978250000000     0.802350000000     0.877850000000    -0.349694   
O14      O      0.979260000000     0.154640000000     0.877410000000    -0.365561   
O15      O      0.803260000000     0.876500000000     0.978040000000    -0.372665   
O16      O      0.155660000000     0.877770000000     0.979430000000    -0.375796   
O17      O      0.154970000000     0.080400000000     0.976760000000    -0.369734   
O18      O      0.802560000000     0.078920000000     0.980750000000    -0.331156   
O19      O      0.877250000000     0.977950000000     0.802790000000    -0.365978   
O20      O      0.079180000000     0.979370000000     0.802340000000    -0.330812   
O21      O      0.802640000000     0.977490000000     0.878150000000    -0.359304   
O22      O      0.154690000000     0.979470000000     0.876540000000    -0.376376   
O23      O      0.878740000000     0.802330000000     0.978050000000    -0.329354   
O24      O      0.876790000000     0.154390000000     0.980080000000    -0.371508   
O25      O      0.079580000000     0.154980000000     0.977160000000    -0.362751   
O26      O      0.080500000000     0.803260000000     0.979640000000    -0.328395   
O27      O      0.977310000000     0.877520000000     0.803050000000    -0.357353   
O28      O      0.979450000000     0.079840000000     0.802260000000    -0.359233   
O29      O      0.041380000000     0.041670000000     0.915740000000    -0.505447   
O30      O      0.916100000000     0.915600000000     0.916140000000    -0.512354   
O31      O      0.915330000000     0.041450000000     0.915990000000    -0.657865   
O32      O      0.041970000000     0.915970000000     0.915540000000    -0.658813   
O33      O      0.977200000000     0.302670000000     0.377200000000    -0.37411    
O34      O      0.980670000000     0.654680000000     0.377350000000    -0.354427   
O35      O      0.877310000000     0.477870000000     0.302690000000    -0.356303   
O36      O      0.079260000000     0.479970000000     0.302380000000    -0.322278   
O37      O      0.154720000000     0.480100000000     0.376640000000    -0.372885   
O38      O      0.802710000000     0.477800000000     0.378040000000    -0.357243   
O39      O      0.979850000000     0.579900000000     0.302180000000    -0.356133   
O40      O      0.977260000000     0.377990000000     0.302800000000    -0.324295   
O41      O      0.041840000000     0.541560000000     0.415560000000    -0.511959   
O42      O      0.915790000000     0.416160000000     0.416130000000    -0.510485   
O43      O      0.915780000000     0.542120000000     0.415690000000    -0.664967   
O44      O      0.041660000000     0.415820000000     0.415550000000    -0.657152   
O45      O      0.978070000000     0.654880000000     0.579410000000    -0.322234   
O46      O      0.980100000000     0.302830000000     0.580210000000    -0.374786   
O47      O      0.802970000000     0.580660000000     0.479420000000    -0.370517   
O48      O      0.155590000000     0.579870000000     0.477720000000    -0.368118   
O49      O      0.154720000000     0.377470000000     0.478710000000    -0.367324   
O50      O      0.802960000000     0.378240000000     0.478760000000    -0.330958   
O51      O      0.878240000000     0.480260000000     0.654890000000    -0.35455    
O52      O      0.080350000000     0.477840000000     0.654210000000    -0.321632   
O53      O      0.802920000000     0.480480000000     0.580250000000    -0.359879   
O54      O      0.155500000000     0.477360000000     0.579650000000    -0.373204   
O55      O      0.878310000000     0.654990000000     0.479070000000    -0.321348   
O56      O      0.877290000000     0.302870000000     0.478580000000    -0.374653   
O57      O      0.079900000000     0.302320000000     0.478960000000    -0.367282   
O58      O      0.080430000000     0.654630000000     0.477810000000    -0.353014   
O59      O      0.978320000000     0.580500000000     0.654730000000    -0.361416   
O60      O      0.980180000000     0.378200000000     0.654590000000    -0.322352   
O61      O      0.041770000000     0.416110000000     0.541240000000    -0.507686   
O62      O      0.916320000000     0.542130000000     0.541620000000    -0.514896   
O63      O      0.916070000000     0.416130000000     0.541780000000    -0.660618   
O64      O      0.042370000000     0.541910000000     0.541440000000    -0.66239    
O65      O      0.655270000000     0.978110000000     0.378140000000    -0.366396   
O66      O      0.303630000000     0.980260000000     0.376850000000    -0.358409   
O67      O      0.480060000000     0.878370000000     0.301720000000    -0.3714     
O68      O      0.478750000000     0.080460000000     0.302680000000    -0.370174   
O69      O      0.478620000000     0.155020000000     0.378100000000    -0.357219   
O70      O      0.479670000000     0.803480000000     0.376780000000    -0.365924   
O71      O      0.378530000000     0.980180000000     0.301780000000    -0.370851   
O72      O      0.580710000000     0.978390000000     0.302720000000    -0.371321   
O73      O      0.416530000000     0.042080000000     0.415640000000    -0.508962   
O74      O      0.542040000000     0.916210000000     0.415790000000    -0.50811    
O75      O      0.416110000000     0.916300000000     0.415180000000    -0.659307   
O76      O      0.542310000000     0.041880000000     0.416030000000    -0.65654    
O77      O      0.302720000000     0.978320000000     0.579270000000    -0.357571   
O78      O      0.654610000000     0.979100000000     0.580870000000    -0.373999   
O79      O      0.377370000000     0.802950000000     0.478550000000    -0.365075   
O80      O      0.378300000000     0.154860000000     0.478170000000    -0.331578   
O81      O      0.580380000000     0.154590000000     0.480100000000    -0.364137   
O82      O      0.579880000000     0.802450000000     0.477610000000    -0.358823   
O83      O      0.477750000000     0.876630000000     0.654420000000    -0.366777   
O84      O      0.479320000000     0.079340000000     0.654960000000    -0.357401   
O85      O      0.477950000000     0.802440000000     0.578890000000    -0.332567   
O86      O      0.479840000000     0.154680000000     0.580310000000    -0.359866   
O87      O      0.303020000000     0.878280000000     0.478630000000    -0.329509   
O88      O      0.654680000000     0.877580000000     0.478340000000    -0.365782   
O89      O      0.655530000000     0.079830000000     0.480220000000    -0.367683   
O90      O      0.302980000000     0.080530000000     0.477660000000    -0.369966   
O91      O      0.377250000000     0.977620000000     0.654700000000    -0.367692   
O92      O      0.579180000000     0.978730000000     0.655150000000    -0.332888   
O93      O      0.541670000000     0.041330000000     0.542190000000    -0.509063   
O94      O      0.415680000000     0.915800000000     0.541060000000    -0.511064   
O95      O      0.541590000000     0.915580000000     0.541610000000    -0.659786   
O96      O      0.415970000000     0.041720000000     0.541750000000    -0.660781   
O97      O      0.302640000000     0.378600000000     0.977150000000    -0.329297   
O98      O      0.654890000000     0.377140000000     0.980810000000    -0.359259   
O99      O      0.478290000000     0.302320000000     0.878560000000    -0.332325   
O100     O      0.478620000000     0.303050000000     0.080940000000    -0.371967   
O101     O      0.478660000000     0.378540000000     0.155150000000    -0.320964   
O102     O      0.479070000000     0.376550000000     0.803060000000    -0.374387   
O103     O      0.579580000000     0.302510000000     0.981110000000    -0.358026   
O104     O      0.376810000000     0.303100000000     0.977660000000    -0.366365   
O105     O      0.541300000000     0.415850000000     0.042190000000    -0.512891   
O106     O      0.416340000000     0.415960000000     0.915910000000    -0.509929   
O107     O      0.541990000000     0.415280000000     0.916390000000    -0.658811   
O108     O      0.415370000000     0.416150000000     0.041800000000    -0.664318   
O109     O      0.655200000000     0.579380000000     0.978220000000    -0.357801   
O110     O      0.303700000000     0.580640000000     0.979010000000    -0.363329   
O111     O      0.581200000000     0.479390000000     0.803070000000    -0.37455    
O112     O      0.579070000000     0.477720000000     0.155190000000    -0.314902   
O113     O      0.377310000000     0.480760000000     0.154670000000    -0.348641   
O114     O      0.378700000000     0.477080000000     0.801770000000    -0.368103   
O115     O      0.480160000000     0.654770000000     0.877110000000    -0.370994   
O116     O      0.478820000000     0.655380000000     0.079700000000    -0.375453   
O117     O      0.480260000000     0.579410000000     0.802460000000    -0.367821   
O118     O      0.478120000000     0.580230000000     0.154260000000    -0.322849   
O119     O      0.655360000000     0.479260000000     0.878620000000    -0.331249   
O120     O      0.303800000000     0.477960000000     0.876840000000    -0.356374   
O121     O      0.302770000000     0.480660000000     0.079270000000    -0.354819   
O122     O      0.654530000000     0.477400000000     0.080970000000    -0.369961   
O123     O      0.580670000000     0.654770000000     0.977390000000    -0.370996   
O124     O      0.378570000000     0.655680000000     0.979300000000    -0.371443   
O125     O      0.416080000000     0.542270000000     0.041190000000    -0.51225    
O126     O      0.542210000000     0.541160000000     0.916060000000    -0.507721   
O127     O      0.416680000000     0.541810000000     0.915240000000    -0.656722   
O128     O      0.541940000000     0.541910000000     0.041900000000    -0.661468   
Zr1      Zr     0.979430000000     0.979020000000     0.103530000000     1.47498    
Zr2      Zr     0.979430000000     0.853730000000     0.978880000000     1.46201    
Zr3      Zr     0.978410000000     0.103870000000     0.978600000000     1.43447    
Zr4      Zr     0.853730000000     0.978030000000     0.979260000000     1.44581    
Zr5      Zr     0.104430000000     0.979030000000     0.978250000000     1.42921    
Zr6      Zr     0.978410000000     0.978780000000     0.853670000000     1.44588    
Zr7      Zr     0.978480000000     0.478940000000     0.353640000000     1.46321    
Zr8      Zr     0.979270000000     0.603870000000     0.478460000000     1.46589    
Zr9      Zr     0.978740000000     0.353550000000     0.478690000000     1.43277    
Zr10     Zr     0.853830000000     0.479320000000     0.479040000000     1.45249    
Zr11     Zr     0.104290000000     0.478770000000     0.478320000000     1.43728    
Zr12     Zr     0.979210000000     0.479230000000     0.603620000000     1.46423    
Zr13     Zr     0.479430000000     0.979220000000     0.353330000000     1.43142    
Zr14     Zr     0.353980000000     0.979280000000     0.478240000000     1.45074    
Zr15     Zr     0.604130000000     0.978800000000     0.479250000000     1.43541    
Zr16     Zr     0.478760000000     0.853800000000     0.478120000000     1.45103    
Zr17     Zr     0.479270000000     0.103800000000     0.479100000000     1.4523     
Zr18     Zr     0.478410000000     0.978210000000     0.603870000000     1.44794    
Zr19     Zr     0.478430000000     0.353560000000     0.979410000000     1.44843    
Zr20     Zr     0.604020000000     0.478350000000     0.979480000000     1.4498     
Zr21     Zr     0.354120000000     0.479330000000     0.978250000000     1.45198    
Zr22     Zr     0.479630000000     0.478220000000     0.853470000000     1.4355     
Zr23     Zr     0.478370000000     0.479210000000     0.103690000000     1.48013    
Zr24     Zr     0.479430000000     0.604130000000     0.978450000000     1.43144    


