data_structure

_audit_creation_method RASPA-1.0
_audit_creation_date 2023-5-19
_audit_author_name 'Poobodin Mano'

_cell_length_a    21.5316
_cell_length_b    21.5563
_cell_length_c    21.5482
_cell_angle_alpha 90
_cell_angle_beta  90
_cell_angle_gamma 90
_cell_volume      10001.4

_symmetry_cell_setting          triclinic
_symmetry_space_group_name_Hall 'P 1'
_symmetry_space_group_name_H-M  'P 1'
_symmetry_Int_Tables_number     1

_symmetry_equiv_pos_as_xyz 'x,y,z'

loop_
_atom_site_label
_atom_site_type_symbol
_atom_site_fract_x
_atom_site_fract_y
_atom_site_fract_z
_atom_site_charge
Br1      Br     0.456860000000     0.082370000000     0.174050000000    -0.209997   
Br2      Br     0.487400000000     0.871780000000     0.173090000000    -0.203745   
Br3      Br     0.454650000000     0.779690000000     0.870120000000    -0.196216   
Br4      Br     0.508990000000     0.084400000000     0.777120000000    -0.199553   
Br5      Br     0.673600000000     0.371730000000     0.458790000000    -0.210917   
Br6      Br     0.673550000000     0.582530000000     0.470150000000    -0.212102   
Br7      Br     0.278630000000     0.371180000000     0.467560000000    -0.219359   
Br8      Br     0.279210000000     0.581990000000     0.460510000000    -0.215918   
Br9      Br     0.578500000000     0.481020000000     0.282040000000    -0.21286    
Br10     Br     0.171930000000     0.500710000000     0.080920000000    -0.17586    
Br11     Br     0.179630000000     0.524080000000     0.864490000000    -0.182864   
Br12     Br     0.873190000000     0.485810000000     0.781300000000    -0.215791   
Br13     Br     0.582260000000     0.778530000000     0.003300000000    -0.193847   
Br14     Br     0.672910000000     0.082670000000     0.957190000000    -0.213064   
Br15     Br     0.082290000000     0.675010000000     0.003190000000    -0.175476   
Br16     Br     0.172870000000     0.370860000000     0.955630000000    -0.178831   
Br17     Br     0.780930000000     0.982680000000     0.579790000000    -0.217356   
Br18     Br     0.372790000000     0.957460000000     0.781030000000    -0.200726   
Br19     Br     0.172030000000     0.992850000000     0.373120000000    -0.231636   
Br20     Br     0.776350000000     0.997000000000     0.368850000000    -0.220063   
Br21     Br     0.996380000000     0.173130000000     0.579920000000    -0.227715   
Br22     Br     0.954370000000     0.673050000000     0.872090000000    -0.193565   
Br23     Br     0.990890000000     0.584220000000     0.174380000000    -0.204792   
Br24     Br     0.964900000000     0.281680000000     0.079180000000    -0.215349   
C1       C      0.972490000000     0.138120000000     0.132350000000     0.407028   
C2       C      0.976890000000     0.820750000000     0.137050000000     0.396274   
C3       C      0.815160000000     0.979890000000     0.132870000000     0.397421   
C4       C      0.133740000000     0.978210000000     0.136300000000     0.396854   
C5       C      0.973760000000     0.815720000000     0.819940000000     0.40553    
C6       C      0.979070000000     0.134080000000     0.816380000000     0.396526   
C7       C      0.817810000000     0.817620000000     0.977500000000     0.396759   
C8       C      0.133770000000     0.817380000000     0.981070000000     0.40716    
C9       C      0.134800000000     0.134720000000     0.974070000000     0.395723   
C10      C      0.816120000000     0.134750000000     0.973780000000     0.404687   
C11      C      0.818380000000     0.974790000000     0.816890000000     0.397946   
C12      C      0.135960000000     0.975150000000     0.819000000000     0.397216   
C13      C      0.972940000000     0.319290000000     0.316430000000     0.39739    
C14      C      0.977820000000     0.636190000000     0.317920000000     0.407201   
C15      C      0.816050000000     0.477210000000     0.319760000000     0.395754   
C16      C      0.133300000000     0.478630000000     0.316950000000     0.397615   
C17      C      0.975160000000     0.634410000000     0.635750000000     0.39605    
C18      C      0.980520000000     0.315970000000     0.632880000000     0.406052   
C19      C      0.817320000000     0.635570000000     0.477720000000     0.40635    
C20      C      0.135860000000     0.634720000000     0.474210000000     0.406909   
C21      C      0.134870000000     0.318170000000     0.475070000000     0.40678    
C22      C      0.816660000000     0.319080000000     0.474400000000     0.406738   
C23      C      0.820040000000     0.477620000000     0.637710000000     0.405374   
C24      C      0.136750000000     0.477380000000     0.633010000000     0.396281   
C25      C      0.633430000000     0.978810000000     0.316490000000     0.406015   
C26      C      0.315350000000     0.979260000000     0.320340000000     0.405317   
C27      C      0.477630000000     0.819120000000     0.316710000000     0.407669   
C28      C      0.471270000000     0.135360000000     0.317200000000     0.406691   
C29      C      0.320440000000     0.974100000000     0.638070000000     0.4059     
C30      C      0.637090000000     0.977610000000     0.632950000000     0.407107   
C31      C      0.317570000000     0.818360000000     0.477370000000     0.396998   
C32      C      0.316560000000     0.134560000000     0.477170000000     0.398131   
C33      C      0.634980000000     0.135410000000     0.475380000000     0.397384   
C34      C      0.635770000000     0.819390000000     0.474090000000     0.396752   
C35      C      0.475890000000     0.817870000000     0.634040000000     0.396576   
C36      C      0.481460000000     0.135310000000     0.635520000000     0.405545   
C37      C      0.316040000000     0.319200000000     0.973540000000     0.404225   
C38      C      0.317680000000     0.636130000000     0.976130000000     0.397149   
C39      C      0.314280000000     0.478130000000     0.132700000000     0.405921   
C40      C      0.318110000000     0.482400000000     0.816480000000     0.407968   
C41      C      0.633930000000     0.636330000000     0.980970000000     0.407255   
C42      C      0.634550000000     0.318980000000     0.975940000000     0.396092   
C43      C      0.476420000000     0.635000000000     0.135570000000     0.397437   
C44      C      0.474330000000     0.636940000000     0.818460000000     0.407106   
C45      C      0.479340000000     0.319420000000     0.816890000000     0.396203   
C46      C      0.471570000000     0.318810000000     0.135190000000     0.396634   
C47      C      0.631810000000     0.477960000000     0.138190000000     0.406217   
C48      C      0.635820000000     0.477100000000     0.819240000000     0.396401   
C49      C      0.472790000000     0.287840000000     0.241680000000     0.0314232  
C50      C      0.466750000000     0.212070000000     0.163450000000    -0.000543277
C51      C      0.472550000000     0.241330000000     0.286800000000     0.037973   
C52      C      0.465870000000     0.165040000000     0.208250000000     0.152278   
C53      C      0.476030000000     0.666330000000     0.241920000000     0.0324349  
C54      C      0.479750000000     0.741860000000     0.163310000000    -0.000462867
C55      C      0.476490000000     0.713060000000     0.286770000000     0.0386388  
C56      C      0.480740000000     0.789110000000     0.207810000000     0.154112   
C57      C      0.478400000000     0.711620000000     0.665560000000     0.0308469  
C58      C      0.469710000000     0.790070000000     0.740830000000    -0.00133361 
C59      C      0.477870000000     0.666820000000     0.712370000000     0.0368159  
C60      C      0.468070000000     0.745570000000     0.788080000000     0.155063   
C61      C      0.476100000000     0.288030000000     0.710540000000     0.0305861  
C62      C      0.488710000000     0.212950000000     0.788640000000    -0.000415519
C63      C      0.476900000000     0.241330000000     0.665570000000     0.0357923  
C64      C      0.490760000000     0.165850000000     0.743910000000     0.152984   
C65      C      0.741450000000     0.166500000000     0.477380000000     0.0333387  
C66      C      0.663070000000     0.242140000000     0.470670000000    -0.000306281
C67      C      0.786480000000     0.213100000000     0.476870000000     0.0390767  
C68      C      0.707750000000     0.289240000000     0.469450000000     0.151817   
C69      C      0.742280000000     0.788310000000     0.476280000000     0.0303079  
C70      C      0.663760000000     0.712580000000     0.473270000000    -0.000911301
C71      C      0.787230000000     0.741630000000     0.477440000000     0.0376886  
C72      C      0.708320000000     0.665390000000     0.474140000000     0.151316   
C73      C      0.210010000000     0.165540000000     0.477850000000     0.0333966  
C74      C      0.288500000000     0.241280000000     0.474210000000    -0.0011301  
C75      C      0.165000000000     0.212160000000     0.477120000000     0.0374585  
C76      C      0.243890000000     0.288400000000     0.473200000000     0.15145    
C77      C      0.211140000000     0.787180000000     0.478990000000     0.0302337  
C78      C      0.289570000000     0.711610000000     0.472110000000    -0.00165748 
C79      C      0.166130000000     0.740610000000     0.477830000000     0.0361585  
C80      C      0.244880000000     0.664510000000     0.470360000000     0.151711   
C81      C      0.784510000000     0.477090000000     0.213530000000     0.0314654  
C82      C      0.708810000000     0.478300000000     0.292110000000    -0.000422067
C83      C      0.737830000000     0.477400000000     0.168600000000     0.0379651  
C84      C      0.661500000000     0.478760000000     0.247450000000     0.156365   
C85      C      0.239410000000     0.474440000000     0.285320000000     0.0324922  
C86      C      0.160970000000     0.484860000000     0.210100000000     0.00164453 
C87      C      0.284200000000     0.474330000000     0.238580000000     0.0397788  
C88      C      0.205570000000     0.485820000000     0.162860000000     0.154145   
C89      C      0.243130000000     0.472000000000     0.664100000000     0.0309538  
C90      C      0.165690000000     0.491570000000     0.738580000000     0.000101311
C91      C      0.288260000000     0.473870000000     0.710640000000     0.0390501  
C92      C      0.210670000000     0.495390000000     0.785210000000     0.155295   
C93      C      0.667330000000     0.476030000000     0.712980000000     0.0327441  
C94      C      0.743010000000     0.479320000000     0.791520000000    -0.000857651
C95      C      0.714000000000     0.476370000000     0.668030000000     0.0353027  
C96      C      0.790290000000     0.480050000000     0.746850000000     0.152084   
C97      C      0.786670000000     0.711280000000     0.975620000000     0.0311502  
C98      C      0.711170000000     0.789530000000     0.984990000000    -0.000299778
C99      C      0.740020000000     0.666310000000     0.976900000000     0.0390607  
C100     C      0.664120000000     0.744860000000     0.987490000000     0.15225    
C101     C      0.741030000000     0.287530000000     0.978140000000     0.0326491  
C102     C      0.662550000000     0.212170000000     0.970220000000    -0.000319769
C103     C      0.786020000000     0.240810000000     0.977360000000     0.0356683  
C104     C      0.707200000000     0.164960000000     0.968760000000     0.152857   
C105     C      0.286460000000     0.742440000000     0.974310000000     0.0322451  
C106     C      0.211060000000     0.664150000000     0.984000000000     0.00243527 
C107     C      0.239820000000     0.787380000000     0.976080000000     0.0399059  
C108     C      0.164020000000     0.708790000000     0.987010000000     0.15613    
C109     C      0.241210000000     0.166280000000     0.976900000000     0.0317799  
C110     C      0.162660000000     0.241520000000     0.968460000000     0.00122688 
C111     C      0.286100000000     0.213090000000     0.976640000000     0.0367026  
C112     C      0.207230000000     0.288780000000     0.967460000000     0.151343   
C113     C      0.712090000000     0.974570000000     0.785520000000     0.0347461  
C114     C      0.790780000000     0.977190000000     0.709900000000    -0.000603747
C115     C      0.667220000000     0.975510000000     0.738860000000     0.0387989  
C116     C      0.746220000000     0.978460000000     0.662660000000     0.15215    
C117     C      0.167660000000     0.977370000000     0.712900000000     0.0306109  
C118     C      0.243050000000     0.970100000000     0.791490000000    -0.000661554
C119     C      0.214420000000     0.976870000000     0.668120000000     0.0348306  
C120     C      0.290380000000     0.968790000000     0.746940000000     0.151757   
C121     C      0.240090000000     0.976270000000     0.167740000000     0.0336738  
C122     C      0.161580000000     0.982690000000     0.243270000000    -0.00180692 
C123     C      0.285050000000     0.976790000000     0.214390000000     0.0360966  
C124     C      0.206270000000     0.983730000000     0.290500000000     0.153186   
C125     C      0.708500000000     0.976910000000     0.163690000000     0.0347539  
C126     C      0.786730000000     0.985120000000     0.239380000000    -0.000970535
C127     C      0.663410000000     0.976690000000     0.210330000000     0.038123   
C128     C      0.742070000000     0.985580000000     0.286430000000     0.151799   
C129     C      0.977830000000     0.240410000000     0.785270000000     0.0324161  
C130     C      0.984620000000     0.162200000000     0.709550000000    -0.00136721 
C131     C      0.978490000000     0.285500000000     0.738790000000     0.0365659  
C132     C      0.985860000000     0.207020000000     0.662510000000     0.153423   
C133     C      0.977650000000     0.740550000000     0.667360000000     0.030253   
C134     C      0.968930000000     0.662180000000     0.742700000000    -0.00047197 
C135     C      0.977120000000     0.785430000000     0.714030000000     0.035532   
C136     C      0.967430000000     0.706860000000     0.789910000000     0.15476    
C137     C      0.975730000000     0.789330000000     0.243490000000     0.0305092  
C138     C      0.981060000000     0.713960000000     0.164840000000    -0.00120662 
C139     C      0.976140000000     0.742440000000     0.288280000000     0.0362921  
C140     C      0.982110000000     0.666630000000     0.209210000000     0.154603   
C141     C      0.973180000000     0.213170000000     0.284920000000     0.0311109  
C142     C      0.970060000000     0.291760000000     0.209340000000    -0.00101257 
C143     C      0.972950000000     0.168340000000     0.238260000000     0.0368074  
C144     C      0.969590000000     0.247190000000     0.162050000000     0.153501   
H1       H      0.886500000000     0.889210000000     0.065970000000     0.214767   
H2       H      0.063890000000     0.066910000000     0.064480000000     0.21414    
H3       H      0.887610000000     0.064150000000     0.885520000000     0.215494   
H4       H      0.065480000000     0.886630000000     0.889300000000     0.215356   
H5       H      0.886700000000     0.566350000000     0.389020000000     0.215669   
H6       H      0.064070000000     0.388400000000     0.385850000000     0.216021   
H7       H      0.888330000000     0.387090000000     0.565540000000     0.215896   
H8       H      0.065760000000     0.565210000000     0.564610000000     0.214497   
H9       H      0.386420000000     0.888450000000     0.388380000000     0.214844   
H10      H      0.563700000000     0.066340000000     0.386810000000     0.216801   
H11      H      0.566230000000     0.887890000000     0.563890000000     0.215661   
H12      H      0.388500000000     0.065700000000     0.566870000000     0.214419   
H13      H      0.385980000000     0.566050000000     0.064620000000     0.217593   
H14      H      0.387540000000     0.389060000000     0.885850000000     0.214818   
H15      H      0.563060000000     0.388120000000     0.066070000000     0.21345    
H16      H      0.565600000000     0.566320000000     0.888840000000     0.213857   
H17      H      0.475260000000     0.256170000000     0.334800000000     0.0462559  
H18      H      0.475550000000     0.335560000000     0.257350000000     0.0534836  
H19      H      0.463830000000     0.198500000000     0.115070000000     0.0688401  
H20      H      0.474870000000     0.698370000000     0.334870000000     0.0465549  
H21      H      0.474290000000     0.618630000000     0.257820000000     0.0545706  
H22      H      0.481320000000     0.755310000000     0.114850000000     0.0823381  
H23      H      0.481740000000     0.618830000000     0.697840000000     0.0429258  
H24      H      0.482420000000     0.695790000000     0.617970000000     0.0449896  
H25      H      0.465710000000     0.838440000000     0.754110000000     0.0824442  
H26      H      0.471400000000     0.255770000000     0.617690000000     0.0434733  
H27      H      0.470330000000     0.335490000000     0.694910000000     0.0429164  
H28      H      0.494600000000     0.199770000000     0.836870000000     0.0699422  
H29      H      0.834530000000     0.198370000000     0.479880000000     0.0525585  
H30      H      0.757190000000     0.118810000000     0.480500000000     0.0641351  
H31      H      0.614640000000     0.255640000000     0.467460000000     0.0671827  
H32      H      0.835340000000     0.756390000000     0.479250000000     0.0429799  
H33      H      0.758080000000     0.836070000000     0.477240000000     0.0567154  
H34      H      0.615290000000     0.699010000000     0.471360000000     0.0677001  
H35      H      0.116880000000     0.197390000000     0.478510000000     0.0556553  
H36      H      0.194230000000     0.117810000000     0.479620000000     0.0549523  
H37      H      0.336980000000     0.254880000000     0.472670000000     0.0664286  
H38      H      0.118070000000     0.755370000000     0.480550000000     0.0415538  
H39      H      0.195370000000     0.834850000000     0.482290000000     0.0482627  
H40      H      0.338020000000     0.698130000000     0.469240000000     0.0667109  
H41      H      0.752720000000     0.476930000000     0.120540000000     0.0454859  
H42      H      0.832270000000     0.476480000000     0.197590000000     0.052656   
H43      H      0.695340000000     0.478880000000     0.340610000000     0.0869612  
H44      H      0.332160000000     0.469440000000     0.253150000000     0.0485109  
H45      H      0.255250000000     0.469930000000     0.332880000000     0.0621573  
H46      H      0.112620000000     0.489870000000     0.196920000000     0.0829084  
H47      H      0.335930000000     0.465530000000     0.696700000000     0.0429164  
H48      H      0.258290000000     0.462920000000     0.616970000000     0.0574739  
H49      H      0.117790000000     0.500480000000     0.751400000000     0.0737402  
H50      H      0.699150000000     0.474900000000     0.619960000000     0.0557564  
H51      H      0.619590000000     0.474480000000     0.697060000000     0.0447974  
H52      H      0.756480000000     0.480920000000     0.840000000000     0.0678475  
H53      H      0.754620000000     0.618330000000     0.972890000000     0.0467214  
H54      H      0.834300000000     0.695600000000     0.971120000000     0.0598853  
H55      H      0.697800000000     0.837860000000     0.989320000000     0.0714216  
H56      H      0.834090000000     0.255390000000     0.980760000000     0.0539472  
H57      H      0.756860000000     0.335140000000     0.981820000000     0.0462271  
H58      H      0.614110000000     0.198810000000     0.966620000000     0.0701446  
H59      H      0.254390000000     0.835370000000     0.972080000000     0.0467515  
H60      H      0.334060000000     0.758140000000     0.969520000000     0.0599413  
H61      H      0.197720000000     0.615840000000     0.988200000000     0.0925982  
H62      H      0.334170000000     0.198570000000     0.980440000000     0.0459451  
H63      H      0.257080000000     0.118700000000     0.980640000000     0.0464486  
H64      H      0.114230000000     0.254810000000     0.964530000000     0.0755991  
H65      H      0.619110000000     0.974540000000     0.753660000000     0.0601398  
H66      H      0.696130000000     0.973130000000     0.833230000000     0.058511   
H67      H      0.839320000000     0.978140000000     0.696450000000     0.0667254  
H68      H      0.199740000000     0.980140000000     0.620100000000     0.0440473  
H69      H      0.120010000000     0.980760000000     0.696960000000     0.043551   
H70      H      0.256330000000     0.966630000000     0.839930000000     0.0680372  
H71      H      0.333110000000     0.974010000000     0.199610000000     0.0596382  
H72      H      0.255960000000     0.973350000000     0.120070000000     0.0476575  
H73      H      0.113110000000     0.985600000000     0.256690000000     0.0660845  
H74      H      0.615360000000     0.972890000000     0.195710000000     0.0623015  
H75      H      0.692890000000     0.973460000000     0.115970000000     0.0560352  
H76      H      0.835070000000     0.989190000000     0.252940000000     0.0660981  
H77      H      0.975510000000     0.333470000000     0.753650000000     0.0531114  
H78      H      0.974690000000     0.256130000000     0.832970000000     0.0499524  
H79      H      0.987750000000     0.113830000000     0.696030000000     0.0673292  
H80      H      0.980970000000     0.833380000000     0.699330000000     0.041358   
H81      H      0.981650000000     0.756400000000     0.619760000000     0.0411989  
H82      H      0.964890000000     0.613820000000     0.755980000000     0.0810135  
H83      H      0.973760000000     0.756950000000     0.336400000000     0.0415711  
H84      H      0.973280000000     0.836980000000     0.259400000000     0.0439516  
H85      H      0.983450000000     0.700570000000     0.116390000000     0.0830636  
H86      H      0.974290000000     0.120300000000     0.253100000000     0.0446205  
H87      H      0.974580000000     0.197210000000     0.332620000000     0.0474095  
H88      H      0.968590000000     0.340240000000     0.195930000000     0.0722135  
N1       N      0.470410000000     0.273250000000     0.179920000000    -0.165457   
N2       N      0.469700000000     0.179660000000     0.270820000000    -0.186399   
N3       N      0.477330000000     0.680690000000     0.180110000000    -0.164055   
N4       N      0.478410000000     0.774710000000     0.270460000000    -0.187114   
N5       N      0.474840000000     0.773340000000     0.679770000000    -0.165016   
N6       N      0.473280000000     0.683090000000     0.773920000000    -0.18666    
N7       N      0.481190000000     0.273820000000     0.772200000000    -0.166406   
N8       N      0.483300000000     0.179910000000     0.681600000000    -0.186002   
N9       N      0.679670000000     0.180980000000     0.474660000000    -0.164617   
N10      N      0.770340000000     0.274730000000     0.473420000000    -0.186234   
N11      N      0.680470000000     0.773820000000     0.474430000000    -0.165194   
N12      N      0.771000000000     0.679930000000     0.476570000000    -0.187101   
N13      N      0.271820000000     0.180080000000     0.476530000000    -0.166049   
N14      N      0.181200000000     0.273830000000     0.475050000000    -0.185863   
N15      N      0.272930000000     0.772730000000     0.476410000000    -0.166153   
N16      N      0.182260000000     0.679010000000     0.473920000000    -0.186959   
N17      N      0.770100000000     0.477460000000     0.275360000000    -0.163298   
N18      N      0.676050000000     0.478100000000     0.184740000000    -0.186888   
N19      N      0.177700000000     0.479210000000     0.271110000000    -0.163528   
N20      N      0.268000000000     0.479460000000     0.177070000000    -0.186245   
N21      N      0.181700000000     0.479810000000     0.678240000000    -0.164512   
N22      N      0.272470000000     0.484280000000     0.771570000000    -0.186873   
N23      N      0.681740000000     0.477340000000     0.774800000000    -0.166857   
N24      N      0.775750000000     0.478100000000     0.684180000000    -0.185173   
N25      N      0.772230000000     0.772970000000     0.979030000000    -0.165026   
N26      N      0.678460000000     0.682440000000     0.982070000000    -0.18677    
N27      N      0.679200000000     0.273260000000     0.974940000000    -0.16635    
N28      N      0.769830000000     0.179240000000     0.973160000000    -0.185329   
N29      N      0.272070000000     0.680740000000     0.977740000000    -0.162509   
N30      N      0.178300000000     0.771240000000     0.981730000000    -0.186821   
N31      N      0.179390000000     0.180470000000     0.973230000000    -0.165597   
N32      N      0.269840000000     0.274640000000     0.972430000000    -0.185423   
N33      N      0.773930000000     0.975320000000     0.771100000000    -0.165993   
N34      N      0.683510000000     0.977330000000     0.677180000000    -0.185678   
N35      N      0.181900000000     0.974390000000     0.774660000000    -0.166982   
N36      N      0.276070000000     0.973100000000     0.684390000000    -0.18636    
N37      N      0.178270000000     0.978910000000     0.182110000000    -0.166657   
N38      N      0.268910000000     0.980080000000     0.276050000000    -0.185128   
N39      N      0.770240000000     0.980610000000     0.178240000000    -0.166142   
N40      N      0.679530000000     0.980410000000     0.271950000000    -0.185226   
N41      N      0.980400000000     0.178670000000     0.770710000000    -0.166223   
N42      N      0.981840000000     0.269550000000     0.677130000000    -0.186095   
N43      N      0.974060000000     0.678820000000     0.681620000000    -0.165384   
N44      N      0.972610000000     0.769350000000     0.775610000000    -0.186349   
N45      N      0.977800000000     0.775100000000     0.181680000000    -0.164927   
N46      N      0.978820000000     0.680820000000     0.271850000000    -0.187234   
N47      N      0.972050000000     0.274950000000     0.270550000000    -0.166068   
N48      N      0.971560000000     0.184560000000     0.176560000000    -0.186954   
O1       O      0.973520000000     0.153480000000     0.074570000000    -0.353355   
O2       O      0.977060000000     0.803580000000     0.079480000000    -0.361303   
O3       O      0.872770000000     0.980480000000     0.150210000000    -0.370904   
O4       O      0.075920000000     0.979260000000     0.152920000000    -0.370206   
O5       O      0.151840000000     0.976870000000     0.078990000000    -0.369031   
O6       O      0.797750000000     0.978250000000     0.075380000000    -0.362407   
O7       O      0.975740000000     0.878270000000     0.154590000000    -0.368616   
O8       O      0.972950000000     0.080880000000     0.150920000000    -0.370507   
O9       O      0.038080000000     0.914940000000     0.040660000000    -0.505922   
O10      O      0.912310000000     0.040280000000     0.037940000000    -0.505613   
O11      O      0.912450000000     0.914850000000     0.039940000000    -0.658471   
O12      O      0.038280000000     0.040550000000     0.038830000000    -0.65061    
O13      O      0.974530000000     0.800250000000     0.877740000000    -0.348769   
O14      O      0.977230000000     0.152170000000     0.873620000000    -0.369093   
O15      O      0.800750000000     0.875210000000     0.976930000000    -0.368632   
O16      O      0.151880000000     0.874770000000     0.980600000000    -0.369915   
O17      O      0.152740000000     0.077380000000     0.975930000000    -0.36828    
O18      O      0.800230000000     0.077140000000     0.974920000000    -0.352199   
O19      O      0.876170000000     0.975060000000     0.800210000000    -0.370775   
O20      O      0.078640000000     0.975340000000     0.800750000000    -0.37102    
O21      O      0.800240000000     0.974710000000     0.874210000000    -0.36239    
O22      O      0.152510000000     0.975240000000     0.876790000000    -0.370643   
O23      O      0.875280000000     0.799970000000     0.977400000000    -0.361198   
O24      O      0.873650000000     0.152750000000     0.973630000000    -0.36264    
O25      O      0.077000000000     0.151510000000     0.973210000000    -0.362442   
O26      O      0.076110000000     0.801460000000     0.979470000000    -0.350334   
O27      O      0.974940000000     0.873010000000     0.801490000000    -0.371056   
O28      O      0.979470000000     0.076260000000     0.799770000000    -0.368021   
O29      O      0.039240000000     0.038430000000     0.913560000000    -0.504638   
O30      O      0.913400000000     0.913310000000     0.913440000000    -0.510552   
O31      O      0.913280000000     0.038540000000     0.911850000000    -0.656342   
O32      O      0.039590000000     0.913050000000     0.914600000000    -0.655912   
O33      O      0.974100000000     0.301040000000     0.373670000000    -0.369477   
O34      O      0.977940000000     0.654080000000     0.375400000000    -0.371387   
O35      O      0.873340000000     0.477410000000     0.301480000000    -0.364372   
O36      O      0.075490000000     0.479260000000     0.300380000000    -0.360946   
O37      O      0.151480000000     0.477160000000     0.374210000000    -0.35708    
O38      O      0.799630000000     0.477120000000     0.377630000000    -0.354184   
O39      O      0.976050000000     0.578630000000     0.301870000000    -0.354224   
O40      O      0.972960000000     0.377080000000     0.299960000000    -0.367951   
O41      O      0.038350000000     0.540040000000     0.413420000000    -0.507623   
O42      O      0.912470000000     0.414560000000     0.414000000000    -0.512202   
O43      O      0.912820000000     0.540520000000     0.414690000000    -0.65833    
O44      O      0.038410000000     0.413980000000     0.412230000000    -0.660159   
O45      O      0.976210000000     0.652660000000     0.578460000000    -0.371564   
O46      O      0.978170000000     0.300300000000     0.575260000000    -0.354967   
O47      O      0.801510000000     0.577960000000     0.478860000000    -0.353304   
O48      O      0.151520000000     0.577050000000     0.474360000000    -0.352845   
O49      O      0.150680000000     0.375760000000     0.475670000000    -0.353091   
O50      O      0.800900000000     0.376700000000     0.476560000000    -0.353019   
O51      O      0.877800000000     0.476060000000     0.653160000000    -0.354412   
O52      O      0.079250000000     0.478110000000     0.650500000000    -0.368384   
O53      O      0.801620000000     0.478130000000     0.580360000000    -0.360552   
O54      O      0.154000000000     0.475460000000     0.575440000000    -0.35795    
O55      O      0.874790000000     0.653700000000     0.477140000000    -0.37199    
O56      O      0.874090000000     0.300860000000     0.473990000000    -0.365037   
O57      O      0.077410000000     0.300050000000     0.474630000000    -0.362054   
O58      O      0.078470000000     0.653030000000     0.475260000000    -0.371073   
O59      O      0.975200000000     0.576590000000     0.652290000000    -0.359797   
O60      O      0.980640000000     0.373380000000     0.651190000000    -0.363196   
O61      O      0.039520000000     0.412860000000     0.537930000000    -0.509825   
O62      O      0.914840000000     0.539660000000     0.540230000000    -0.508583   
O63      O      0.914030000000     0.413030000000     0.539550000000    -0.660045   
O64      O      0.039570000000     0.539550000000     0.538850000000    -0.656518   
O65      O      0.649730000000     0.977410000000     0.373920000000    -0.354427   
O66      O      0.299840000000     0.978290000000     0.378110000000    -0.352525   
O67      O      0.476160000000     0.876740000000     0.300930000000    -0.354357   
O68      O      0.472320000000     0.077790000000     0.301380000000    -0.352307   
O69      O      0.472540000000     0.153470000000     0.374670000000    -0.368437   
O70      O      0.477720000000     0.800990000000     0.374110000000    -0.370315   
O71      O      0.372710000000     0.978670000000     0.301890000000    -0.358299   
O72      O      0.575790000000     0.978660000000     0.298840000000    -0.35698    
O73      O      0.412540000000     0.039500000000     0.414970000000    -0.507099   
O74      O      0.538670000000     0.914290000000     0.412540000000    -0.510892   
O75      O      0.412510000000     0.914160000000     0.414210000000    -0.657493   
O76      O      0.538220000000     0.040370000000     0.412970000000    -0.659236   
O77      O      0.301940000000     0.974400000000     0.580800000000    -0.371115   
O78      O      0.652570000000     0.977840000000     0.575220000000    -0.353309   
O79      O      0.375280000000     0.801460000000     0.476170000000    -0.371677   
O80      O      0.374200000000     0.151710000000     0.476630000000    -0.372202   
O81      O      0.577280000000     0.152430000000     0.475050000000    -0.370552   
O82      O      0.578120000000     0.802280000000     0.474260000000    -0.370691   
O83      O      0.476250000000     0.875510000000     0.650970000000    -0.361286   
O84      O      0.480410000000     0.077670000000     0.651540000000    -0.347872   
O85      O      0.476520000000     0.800030000000     0.576600000000    -0.368882   
O86      O      0.479580000000     0.153310000000     0.578070000000    -0.369614   
O87      O      0.299730000000     0.875730000000     0.478740000000    -0.36556    
O88      O      0.653400000000     0.876850000000     0.474280000000    -0.358538   
O89      O      0.652720000000     0.077990000000     0.475930000000    -0.35394    
O90      O      0.298930000000     0.077120000000     0.478290000000    -0.362509   
O91      O      0.378250000000     0.975640000000     0.653540000000    -0.350448   
O92      O      0.579770000000     0.976980000000     0.651370000000    -0.36269    
O93      O      0.539660000000     0.040180000000     0.538380000000    -0.510183   
O94      O      0.414660000000     0.913710000000     0.539810000000    -0.510327   
O95      O      0.540050000000     0.913720000000     0.538290000000    -0.661786   
O96      O      0.414000000000     0.040010000000     0.540440000000    -0.656376   
O97      O      0.373570000000     0.301210000000     0.974020000000    -0.369568   
O98      O      0.375140000000     0.653860000000     0.975730000000    -0.36024    
O99      O      0.298700000000     0.477030000000     0.074930000000    -0.346683   
O100     O      0.301410000000     0.480580000000     0.873930000000    -0.347097   
O101     O      0.375710000000     0.480750000000     0.798930000000    -0.370454   
O102     O      0.371610000000     0.477810000000     0.151120000000    -0.369703   
O103     O      0.300700000000     0.578500000000     0.976030000000    -0.353395   
O104     O      0.300140000000     0.376850000000     0.974410000000    -0.347526   
O105     O      0.413520000000     0.540290000000     0.912760000000    -0.511795   
O106     O      0.411780000000     0.414100000000     0.038620000000    -0.510526   
O107     O      0.412030000000     0.540070000000     0.039040000000    -0.664275   
O108     O      0.413320000000     0.414660000000     0.912100000000    -0.658068   
O109     O      0.576310000000     0.652300000000     0.978730000000    -0.351551   
O110     O      0.576770000000     0.302150000000     0.975380000000    -0.368907   
O111     O      0.475200000000     0.577630000000     0.153410000000    -0.362099   
O112     O      0.475440000000     0.579580000000     0.800320000000    -0.370519   
O113     O      0.477690000000     0.376840000000     0.799150000000    -0.370929   
O114     O      0.472230000000     0.376150000000     0.153050000000    -0.365213   
O115     O      0.650350000000     0.477890000000     0.080870000000    -0.368543   
O116     O      0.652320000000     0.477300000000     0.877120000000    -0.368827   
O117     O      0.573970000000     0.477460000000     0.153560000000    -0.353221   
O118     O      0.578530000000     0.477140000000     0.800940000000    -0.371722   
O119     O      0.476660000000     0.651860000000     0.077890000000    -0.359942   
O120     O      0.472270000000     0.301920000000     0.077440000000    -0.367836   
O121     O      0.479170000000     0.302400000000     0.874560000000    -0.368548   
O122     O      0.474990000000     0.652750000000     0.876150000000    -0.349705   
O123     O      0.651980000000     0.578910000000     0.980890000000    -0.370516   
O124     O      0.652460000000     0.376350000000     0.977410000000    -0.370038   
O125     O      0.538750000000     0.415340000000     0.914490000000    -0.504982   
O126     O      0.537610000000     0.539650000000     0.040430000000    -0.507322   
O127     O      0.537600000000     0.414190000000     0.039990000000    -0.65236    
O128     O      0.539510000000     0.540150000000     0.914210000000    -0.654151   
Zr1      Zr     0.974940000000     0.978710000000     0.101640000000     1.42865    
Zr2      Zr     0.975610000000     0.852470000000     0.977810000000     1.45128    
Zr3      Zr     0.975360000000     0.101520000000     0.974530000000     1.43989    
Zr4      Zr     0.850860000000     0.976460000000     0.975420000000     1.44313    
Zr5      Zr     0.101300000000     0.976450000000     0.977640000000     1.42902    
Zr6      Zr     0.977160000000     0.975150000000     0.851100000000     1.4283     
Zr7      Zr     0.974760000000     0.477560000000     0.351790000000     1.44669    
Zr8      Zr     0.976520000000     0.602810000000     0.476770000000     1.42842    
Zr9      Zr     0.975940000000     0.351320000000     0.474960000000     1.44262    
Zr10     Zr     0.851740000000     0.477210000000     0.478280000000     1.45537    
Zr11     Zr     0.100720000000     0.476540000000     0.475310000000     1.45744    
Zr12     Zr     0.977770000000     0.475580000000     0.601080000000     1.4433     
Zr13     Zr     0.474850000000     0.977260000000     0.351670000000     1.45282    
Zr14     Zr     0.351140000000     0.976630000000     0.478640000000     1.44133    
Zr15     Zr     0.600920000000     0.977260000000     0.475110000000     1.456      
Zr16     Zr     0.476540000000     0.851780000000     0.475690000000     1.43571    
Zr17     Zr     0.475870000000     0.102410000000     0.476470000000     1.43442    
Zr18     Zr     0.478160000000     0.976770000000     0.600970000000     1.45293    
Zr19     Zr     0.351210000000     0.477430000000     0.975040000000     1.46274    
Zr20     Zr     0.475640000000     0.601650000000     0.976720000000     1.45493    
Zr21     Zr     0.475200000000     0.352400000000     0.975980000000     1.42997    
Zr22     Zr     0.473760000000     0.476870000000     0.101720000000     1.44648    
Zr23     Zr     0.476830000000     0.477870000000     0.850690000000     1.43163    
Zr24     Zr     0.601080000000     0.477400000000     0.978320000000     1.42768    


