data_structure

_audit_creation_method RASPA-1.0
_audit_creation_date 2023-5-19
_audit_author_name 'Poobodin Mano'

_cell_length_a    21.8464
_cell_length_b    21.8464
_cell_length_c    21.8463
_cell_angle_alpha 90
_cell_angle_beta  90
_cell_angle_gamma 90
_cell_volume      10426.5

_symmetry_cell_setting          triclinic
_symmetry_space_group_name_Hall 'P 1'
_symmetry_space_group_name_H-M  'P 1'
_symmetry_Int_Tables_number     1

_symmetry_equiv_pos_as_xyz 'x,y,z'

loop_
_atom_site_label
_atom_site_type_symbol
_atom_site_fract_x
_atom_site_fract_y
_atom_site_fract_z
_atom_site_charge
C1       C      0.988790000000     0.146520000000     0.146510000000     0.342696   
C2       C      0.992110000000     0.834390000000     0.146510000000     0.34286    
C3       C      0.834380000000     0.991080000000     0.146520000000     0.342576   
C4       C      0.146520000000     0.989820000000     0.146520000000     0.342506   
C5       C      0.988790000000     0.834390000000     0.834400000000     0.342908   
C6       C      0.992110000000     0.146520000000     0.834390000000     0.342669   
C7       C      0.834390000000     0.834390000000     0.988800000000     0.342967   
C8       C      0.146510000000     0.834390000000     0.992110000000     0.342891   
C9       C      0.146510000000     0.146520000000     0.988800000000     0.34269    
C10      C      0.834390000000     0.146520000000     0.992110000000     0.34277    
C11      C      0.834380000000     0.989820000000     0.834380000000     0.342724   
C12      C      0.146520000000     0.991080000000     0.834380000000     0.342633   
C13      C      0.988790000000     0.334390000000     0.334390000000     0.342975   
C14      C      0.992110000000     0.646510000000     0.334390000000     0.343036   
C15      C      0.834390000000     0.488800000000     0.334390000000     0.343173   
C16      C      0.146510000000     0.492110000000     0.334390000000     0.343023   
C17      C      0.988790000000     0.646510000000     0.646520000000     0.342855   
C18      C      0.992110000000     0.334390000000     0.646520000000     0.342845   
C19      C      0.834380000000     0.646520000000     0.491080000000     0.342868   
C20      C      0.146520000000     0.646520000000     0.489820000000     0.342787   
C21      C      0.146520000000     0.334380000000     0.491080000000     0.342864   
C22      C      0.834380000000     0.334380000000     0.489820000000     0.342951   
C23      C      0.834390000000     0.492110000000     0.646520000000     0.34307    
C24      C      0.146510000000     0.488800000000     0.646520000000     0.342987   
C25      C      0.646520000000     0.989480000000     0.334390000000     0.342898   
C26      C      0.334390000000     0.991420000000     0.334390000000     0.342928   
C27      C      0.491420000000     0.834390000000     0.334390000000     0.343136   
C28      C      0.489480000000     0.146520000000     0.334390000000     0.342847   
C29      C      0.334380000000     0.989480000000     0.646520000000     0.342827   
C30      C      0.646520000000     0.991420000000     0.646520000000     0.342807   
C31      C      0.334390000000     0.834390000000     0.491420000000     0.343082   
C32      C      0.334390000000     0.146520000000     0.489490000000     0.342922   
C33      C      0.646520000000     0.146520000000     0.491420000000     0.342862   
C34      C      0.646520000000     0.834390000000     0.489480000000     0.343018   
C35      C      0.489480000000     0.834390000000     0.646520000000     0.343022   
C36      C      0.491420000000     0.146520000000     0.646520000000     0.342817   
C37      C      0.334390000000     0.334390000000     0.988800000000     0.342957   
C38      C      0.646520000000     0.334390000000     0.992110000000     0.342837   
C39      C      0.489820000000     0.334380000000     0.834390000000     0.343027   
C40      C      0.491080000000     0.334380000000     0.146520000000     0.342821   
C41      C      0.646520000000     0.646510000000     0.988790000000     0.342901   
C42      C      0.334390000000     0.646510000000     0.992110000000     0.342956   
C43      C      0.646520000000     0.492110000000     0.834390000000     0.342971   
C44      C      0.646520000000     0.488800000000     0.146510000000     0.34299    
C45      C      0.334390000000     0.492110000000     0.146510000000     0.343078   
C46      C      0.334380000000     0.488800000000     0.834400000000     0.343072   
C47      C      0.491080000000     0.646520000000     0.834380000000     0.342881   
C48      C      0.489820000000     0.646520000000     0.146520000000     0.342817   
C49      C      0.489940000000     0.257010000000     0.302240000000    -0.00578294 
C50      C      0.489680000000     0.194600000000     0.286310000000    -0.081894   
C51      C      0.489970000000     0.178670000000     0.223900000000    -0.0056549  
C52      C      0.490530000000     0.223900000000     0.178670000000    -0.00563755 
C53      C      0.490790000000     0.286300000000     0.194600000000    -0.0819169  
C54      C      0.490490000000     0.302230000000     0.257010000000    -0.00572348 
C55      C      0.490950000000     0.723900000000     0.302230000000    -0.00566516 
C56      C      0.491220000000     0.786310000000     0.286300000000    -0.0821491  
C57      C      0.490960000000     0.802240000000     0.223900000000    -0.00563307 
C58      C      0.490400000000     0.757010000000     0.178670000000    -0.00577486 
C59      C      0.490110000000     0.694610000000     0.194600000000    -0.0818539  
C60      C      0.490390000000     0.678670000000     0.257010000000    -0.00586763 
C61      C      0.490520000000     0.757010000000     0.802230000000    -0.00579179 
C62      C      0.490790000000     0.694600000000     0.786300000000    -0.0820936  
C63      C      0.490500000000     0.678670000000     0.723900000000    -0.00576696 
C64      C      0.489940000000     0.723900000000     0.678670000000    -0.00574884 
C65      C      0.489680000000     0.786310000000     0.694600000000    -0.0821416  
C66      C      0.489960000000     0.802230000000     0.757010000000    -0.00575416 
C67      C      0.490940000000     0.178670000000     0.757010000000    -0.00577099 
C68      C      0.491220000000     0.194600000000     0.694600000000    -0.0819056  
C69      C      0.490960000000     0.257000000000     0.678670000000    -0.00580008 
C70      C      0.490400000000     0.302230000000     0.723900000000    -0.00569598 
C71      C      0.490110000000     0.286300000000     0.786310000000    -0.0821404  
C72      C      0.490380000000     0.223890000000     0.802230000000    -0.00563711 
C73      C      0.678670000000     0.257000000000     0.490950000000    -0.00578599 
C74      C      0.694600000000     0.194600000000     0.491220000000    -0.0819393  
C75      C      0.757000000000     0.178670000000     0.490960000000    -0.00574207 
C76      C      0.802230000000     0.223900000000     0.490400000000    -0.00564798 
C77      C      0.786300000000     0.286300000000     0.490110000000    -0.0821264  
C78      C      0.723900000000     0.302230000000     0.490390000000    -0.00569976 
C79      C      0.723900000000     0.678670000000     0.490510000000    -0.00579585 
C80      C      0.786300000000     0.694600000000     0.490800000000    -0.0820734  
C81      C      0.802230000000     0.757010000000     0.490500000000    -0.00580577 
C82      C      0.757000000000     0.802230000000     0.489950000000    -0.00572586 
C83      C      0.694600000000     0.786310000000     0.489680000000    -0.0821544  
C84      C      0.678670000000     0.723900000000     0.489960000000    -0.00573416 
C85      C      0.178670000000     0.223900000000     0.490440000000    -0.00563268 
C86      C      0.194600000000     0.286300000000     0.490800000000    -0.0819279  
C87      C      0.257010000000     0.302230000000     0.490570000000    -0.00575419 
C88      C      0.302230000000     0.257000000000     0.490020000000    -0.00573214 
C89      C      0.286300000000     0.194600000000     0.489680000000    -0.0819164  
C90      C      0.223900000000     0.178670000000     0.489890000000    -0.00562977 
C91      C      0.178670000000     0.757010000000     0.490400000000    -0.00579729 
C92      C      0.194600000000     0.694600000000     0.490110000000    -0.0818766  
C93      C      0.257010000000     0.678670000000     0.490390000000    -0.00585092 
C94      C      0.302230000000     0.723900000000     0.490950000000    -0.00567619 
C95      C      0.286300000000     0.786310000000     0.491220000000    -0.0821352  
C96      C      0.223900000000     0.802230000000     0.490950000000    -0.00560903 
C97      C      0.802230000000     0.488190000000     0.223900000000    -0.00563011 
C98      C      0.786310000000     0.488300000000     0.286300000000    -0.0821033  
C99      C      0.723900000000     0.488180000000     0.302230000000    -0.00569656 
C100     C      0.678670000000     0.488180000000     0.257000000000    -0.00577556 
C101     C      0.694600000000     0.488300000000     0.194590000000    -0.081922   
C102     C      0.757000000000     0.488190000000     0.178670000000    -0.00572332 
C103     C      0.178670000000     0.492720000000     0.223900000000    -0.00560607 
C104     C      0.194590000000     0.492610000000     0.286310000000    -0.0819276  
C105     C      0.257000000000     0.492730000000     0.302230000000    -0.00571222 
C106     C      0.302230000000     0.492730000000     0.257000000000    -0.0057355  
C107     C      0.286300000000     0.492610000000     0.194600000000    -0.0818808  
C108     C      0.223900000000     0.492720000000     0.178670000000    -0.00563233 
C109     C      0.178670000000     0.488250000000     0.757010000000    -0.00571111 
C110     C      0.194590000000     0.488300000000     0.694600000000    -0.0819195  
C111     C      0.257000000000     0.488120000000     0.678670000000    -0.00579027 
C112     C      0.302230000000     0.488120000000     0.723900000000    -0.00571058 
C113     C      0.286300000000     0.488300000000     0.786310000000    -0.0820478  
C114     C      0.223890000000     0.488250000000     0.802240000000    -0.00569809 
C115     C      0.723900000000     0.492730000000     0.678670000000    -0.00574286 
C116     C      0.786310000000     0.492610000000     0.694600000000    -0.0820994  
C117     C      0.802230000000     0.492720000000     0.757010000000    -0.00576245 
C118     C      0.757000000000     0.492720000000     0.802230000000    -0.0057448  
C119     C      0.694600000000     0.492610000000     0.786310000000    -0.0820771  
C120     C      0.678670000000     0.492730000000     0.723900000000    -0.00575565 
C121     C      0.802230000000     0.723900000000     0.988220000000    -0.00584045 
C122     C      0.786310000000     0.786310000000     0.988300000000    -0.082252   
C123     C      0.723900000000     0.802230000000     0.988140000000    -0.00584083 
C124     C      0.678670000000     0.757000000000     0.988140000000    -0.00588384 
C125     C      0.694600000000     0.694600000000     0.988290000000    -0.0822005  
C126     C      0.757000000000     0.678670000000     0.988220000000    -0.00588894 
C127     C      0.802230000000     0.257010000000     0.992690000000    -0.00589466 
C128     C      0.786310000000     0.194600000000     0.992610000000    -0.0820265  
C129     C      0.723900000000     0.178670000000     0.992760000000    -0.00583726 
C130     C      0.678670000000     0.223900000000     0.992760000000    -0.00578308 
C131     C      0.694600000000     0.286310000000     0.992610000000    -0.0821976  
C132     C      0.757000000000     0.302240000000     0.992690000000    -0.00584146 
C133     C      0.178670000000     0.723900000000     0.992720000000    -0.00581094 
C134     C      0.194590000000     0.786310000000     0.992610000000    -0.0820834  
C135     C      0.257000000000     0.802230000000     0.992720000000    -0.00585111 
C136     C      0.302230000000     0.757010000000     0.992720000000    -0.00587681 
C137     C      0.286300000000     0.694600000000     0.992610000000    -0.0821623  
C138     C      0.223900000000     0.678670000000     0.992720000000    -0.0057957  
C139     C      0.257000000000     0.178670000000     0.988170000000    -0.00586994 
C140     C      0.194590000000     0.194600000000     0.988300000000    -0.0818318  
C141     C      0.178670000000     0.257010000000     0.988190000000    -0.00588238 
C142     C      0.223900000000     0.302240000000     0.988190000000    -0.00569958 
C143     C      0.286300000000     0.286310000000     0.988300000000    -0.0822029  
C144     C      0.302230000000     0.223900000000     0.988170000000    -0.00572447 
C145     C      0.723900000000     0.990350000000     0.802230000000    -0.00586125 
C146     C      0.786300000000     0.990110000000     0.786300000000    -0.0822385  
C147     C      0.802230000000     0.990440000000     0.723900000000    -0.0058759  
C148     C      0.757000000000     0.990990000000     0.678670000000    -0.00587774 
C149     C      0.694600000000     0.991220000000     0.694600000000    -0.0822597  
C150     C      0.678670000000     0.990910000000     0.757010000000    -0.00590243 
C151     C      0.257010000000     0.990510000000     0.802230000000    -0.00592377 
C152     C      0.194600000000     0.990790000000     0.786300000000    -0.0820406  
C153     C      0.178670000000     0.990500000000     0.723900000000    -0.0058598  
C154     C      0.223900000000     0.989950000000     0.678670000000    -0.00575972 
C155     C      0.286300000000     0.989680000000     0.694600000000    -0.0822612  
C156     C      0.302230000000     0.989950000000     0.757010000000    -0.00583178 
C157     C      0.178670000000     0.990400000000     0.257010000000    -0.00590854 
C158     C      0.194600000000     0.990110000000     0.194600000000    -0.0818194  
C159     C      0.257010000000     0.990390000000     0.178670000000    -0.00592133 
C160     C      0.302230000000     0.990950000000     0.223900000000    -0.00570762 
C161     C      0.286300000000     0.991220000000     0.286300000000    -0.0822159  
C162     C      0.223900000000     0.990960000000     0.302240000000    -0.00573461 
C163     C      0.757000000000     0.989910000000     0.302240000000    -0.00581114 
C164     C      0.694600000000     0.989680000000     0.286310000000    -0.0822816  
C165     C      0.678670000000     0.990000000000     0.223900000000    -0.00574767 
C166     C      0.723900000000     0.990550000000     0.178670000000    -0.00589515 
C167     C      0.786300000000     0.990800000000     0.194600000000    -0.0819987  
C168     C      0.802230000000     0.990470000000     0.257010000000    -0.00594831 
C169     C      0.992730000000     0.257010000000     0.802240000000    -0.00593001 
C170     C      0.992600000000     0.194600000000     0.786310000000    -0.0819817  
C171     C      0.992710000000     0.178670000000     0.723900000000    -0.00585659 
C172     C      0.992710000000     0.223900000000     0.678670000000    -0.00577272 
C173     C      0.992600000000     0.286310000000     0.694600000000    -0.082202   
C174     C      0.992730000000     0.302240000000     0.757010000000    -0.00583975 
C175     C      0.988180000000     0.723900000000     0.802240000000    -0.00588746 
C176     C      0.988290000000     0.786310000000     0.786310000000    -0.0821788  
C177     C      0.988180000000     0.802230000000     0.723900000000    -0.00587595 
C178     C      0.988180000000     0.757000000000     0.678670000000    -0.00587346 
C179     C      0.988290000000     0.694600000000     0.694600000000    -0.0821829  
C180     C      0.988180000000     0.678670000000     0.757010000000    -0.00589177 
C181     C      0.992720000000     0.678670000000     0.223900000000    -0.00575554 
C182     C      0.992610000000     0.694600000000     0.286310000000    -0.082251   
C183     C      0.992720000000     0.757000000000     0.302230000000    -0.00580222 
C184     C      0.992720000000     0.802230000000     0.257000000000    -0.00589567 
C185     C      0.992610000000     0.786310000000     0.194600000000    -0.0820247  
C186     C      0.992720000000     0.723900000000     0.178670000000    -0.00585761 
C187     C      0.988170000000     0.257010000000     0.178670000000    -0.00587626 
C188     C      0.988290000000     0.194600000000     0.194590000000    -0.0818313  
C189     C      0.988190000000     0.178670000000     0.257000000000    -0.00588007 
C190     C      0.988190000000     0.223900000000     0.302230000000    -0.00570349 
C191     C      0.988290000000     0.286310000000     0.286310000000    -0.0822321  
C192     C      0.988170000000     0.302240000000     0.223900000000    -0.00571655 
H1       H      0.902840000000     0.902740000000     0.078060000000     0.210302   
H2       H      0.078060000000     0.078160000000     0.078060000000     0.210533   
H3       H      0.902840000000     0.078160000000     0.902850000000     0.2103     
H4       H      0.078060000000     0.902750000000     0.902850000000     0.210378   
H5       H      0.902850000000     0.578060000000     0.402740000000     0.210229   
H6       H      0.078060000000     0.402850000000     0.402740000000     0.21028    
H7       H      0.902840000000     0.402850000000     0.578160000000     0.210148   
H8       H      0.078060000000     0.578060000000     0.578160000000     0.210328   
H9       H      0.402850000000     0.902860000000     0.402850000000     0.210644   
H10      H      0.578050000000     0.078050000000     0.402860000000     0.210833   
H11      H      0.578050000000     0.902860000000     0.578050000000     0.210708   
H12      H      0.402850000000     0.078050000000     0.578050000000     0.210755   
H13      H      0.578160000000     0.402840000000     0.902850000000     0.210068   
H14      H      0.402740000000     0.402850000000     0.078060000000     0.210273   
H15      H      0.402740000000     0.578060000000     0.902850000000     0.210139   
H16      H      0.578160000000     0.578060000000     0.078060000000     0.210251   
H17      H      0.489760000000     0.271180000000     0.349740000000     0.042162   
H18      H      0.489820000000     0.131160000000     0.209730000000     0.042581   
H19      H      0.490710000000     0.209720000000     0.131170000000     0.0425693  
H20      H      0.490650000000     0.349740000000     0.271190000000     0.0421357  
H21      H      0.491110000000     0.709720000000     0.349740000000     0.0421061  
H22      H      0.491130000000     0.849740000000     0.209720000000     0.0421958  
H23      H      0.490220000000     0.771190000000     0.131160000000     0.0424254  
H24      H      0.490210000000     0.631170000000     0.271180000000     0.0421704  
H25      H      0.490700000000     0.771180000000     0.849740000000     0.0420489  
H26      H      0.490670000000     0.631160000000     0.709720000000     0.0421191  
H27      H      0.489770000000     0.709720000000     0.631160000000     0.0421224  
H28      H      0.489800000000     0.849740000000     0.771180000000     0.042041   
H29      H      0.491100000000     0.131160000000     0.771180000000     0.0424343  
H30      H      0.491130000000     0.271180000000     0.631160000000     0.0421476  
H31      H      0.490230000000     0.349740000000     0.709720000000     0.0421091  
H32      H      0.490200000000     0.209720000000     0.849740000000     0.0421887  
H33      H      0.631160000000     0.271180000000     0.491110000000     0.0421452  
H34      H      0.771180000000     0.131160000000     0.491130000000     0.0424192  
H35      H      0.849740000000     0.209720000000     0.490220000000     0.0421855  
H36      H      0.709720000000     0.349740000000     0.490210000000     0.0421099  
H37      H      0.709720000000     0.631170000000     0.490690000000     0.0421286  
H38      H      0.849740000000     0.771190000000     0.490680000000     0.0420493  
H39      H      0.771180000000     0.849740000000     0.489780000000     0.0420339  
H40      H      0.631160000000     0.709720000000     0.489790000000     0.0421177  
H41      H      0.131160000000     0.209720000000     0.490570000000     0.042562   
H42      H      0.271180000000     0.349740000000     0.490810000000     0.0421445  
H43      H      0.349740000000     0.271180000000     0.489910000000     0.0421394  
H44      H      0.209720000000     0.131160000000     0.489670000000     0.0425735  
H45      H      0.131160000000     0.771180000000     0.490220000000     0.0424344  
H46      H      0.271180000000     0.631170000000     0.490210000000     0.0421627  
H47      H      0.349740000000     0.709720000000     0.491110000000     0.0421134  
H48      H      0.209720000000     0.849740000000     0.491120000000     0.0421859  
H49      H      0.849740000000     0.488220000000     0.209720000000     0.0421884  
H50      H      0.709720000000     0.488210000000     0.349740000000     0.0421238  
H51      H      0.631160000000     0.488210000000     0.271180000000     0.0421525  
H52      H      0.771180000000     0.488220000000     0.131160000000     0.0424187  
H53      H      0.131160000000     0.492680000000     0.209720000000     0.0425664  
H54      H      0.271180000000     0.492690000000     0.349740000000     0.0421461  
H55      H      0.349740000000     0.492690000000     0.271180000000     0.0421506  
H56      H      0.209720000000     0.492680000000     0.131160000000     0.0425692  
H57      H      0.131160000000     0.488330000000     0.771180000000     0.0424147  
H58      H      0.271170000000     0.488100000000     0.631170000000     0.0421638  
H59      H      0.349740000000     0.488100000000     0.709730000000     0.042136   
H60      H      0.209720000000     0.488330000000     0.849740000000     0.0422048  
H61      H      0.709720000000     0.492690000000     0.631160000000     0.0421272  
H62      H      0.849740000000     0.492680000000     0.771180000000     0.0420489  
H63      H      0.771180000000     0.492680000000     0.849740000000     0.0420417  
H64      H      0.631160000000     0.492690000000     0.709720000000     0.0421306  
H65      H      0.849740000000     0.709720000000     0.988290000000     0.0418862  
H66      H      0.709720000000     0.849740000000     0.988140000000     0.041896   
H67      H      0.631160000000     0.771180000000     0.988140000000     0.0419212  
H68      H      0.771180000000     0.631160000000     0.988290000000     0.041914   
H69      H      0.849740000000     0.271180000000     0.992620000000     0.0419141  
H70      H      0.709720000000     0.131160000000     0.992750000000     0.042271   
H71      H      0.631160000000     0.209730000000     0.992750000000     0.0420732  
H72      H      0.771180000000     0.349740000000     0.992620000000     0.0419088  
H73      H      0.131160000000     0.709720000000     0.992680000000     0.042254   
H74      H      0.271180000000     0.849740000000     0.992690000000     0.0419065  
H75      H      0.349740000000     0.771180000000     0.992690000000     0.0419279  
H76      H      0.209720000000     0.631160000000     0.992680000000     0.0420572  
H77      H      0.271180000000     0.131160000000     0.988210000000     0.0423018  
H78      H      0.131160000000     0.271180000000     0.988230000000     0.0423034  
H79      H      0.209720000000     0.349750000000     0.988230000000     0.0420557  
H80      H      0.349740000000     0.209730000000     0.988210000000     0.0420742  
H81      H      0.709720000000     0.990140000000     0.849740000000     0.0418837  
H82      H      0.849740000000     0.990290000000     0.709720000000     0.0418841  
H83      H      0.771180000000     0.991200000000     0.631160000000     0.0419065  
H84      H      0.631160000000     0.991040000000     0.771180000000     0.0419125  
H85      H      0.271180000000     0.990690000000     0.849740000000     0.0419143  
H86      H      0.131160000000     0.990680000000     0.709720000000     0.0422631  
H87      H      0.209720000000     0.989780000000     0.631160000000     0.0420592  
H88      H      0.349740000000     0.989790000000     0.771180000000     0.0419078  
H89      H      0.131160000000     0.990230000000     0.271180000000     0.0423005  
H90      H      0.271180000000     0.990210000000     0.131160000000     0.0423004  
H91      H      0.349740000000     0.991110000000     0.209720000000     0.0420542  
H92      H      0.209720000000     0.991130000000     0.349740000000     0.0420627  
H93      H      0.771180000000     0.989710000000     0.349740000000     0.0419071  
H94      H      0.631160000000     0.989870000000     0.209720000000     0.0420537  
H95      H      0.709720000000     0.990770000000     0.131170000000     0.0422764  
H96      H      0.849740000000     0.990610000000     0.271180000000     0.0419236  
H97      H      0.992710000000     0.271180000000     0.849740000000     0.0419283  
H98      H      0.992660000000     0.131160000000     0.709720000000     0.0422751  
H99      H      0.992660000000     0.209730000000     0.631160000000     0.0420704  
H100     H      0.992710000000     0.349740000000     0.771180000000     0.0419148  
H101     H      0.988220000000     0.709720000000     0.849740000000     0.0419036  
H102     H      0.988220000000     0.849740000000     0.709730000000     0.0419105  
H103     H      0.988220000000     0.771180000000     0.631160000000     0.0419235  
H104     H      0.988220000000     0.631160000000     0.771180000000     0.0419184  
H105     H      0.992690000000     0.631160000000     0.209720000000     0.0420507  
H106     H      0.992680000000     0.771180000000     0.349740000000     0.0419019  
H107     H      0.992680000000     0.849740000000     0.271180000000     0.0419168  
H108     H      0.992690000000     0.709720000000     0.131160000000     0.0422648  
H109     H      0.988200000000     0.271180000000     0.131160000000     0.0423026  
H110     H      0.988230000000     0.131160000000     0.271180000000     0.0423052  
H111     H      0.988230000000     0.209730000000     0.349740000000     0.0420676  
H112     H      0.988200000000     0.349740000000     0.209720000000     0.042064   
O1       O      0.989340000000     0.164280000000     0.090060000000    -0.363987   
O2       O      0.991560000000     0.816630000000     0.090060000000    -0.364075   
O3       O      0.890840000000     0.990920000000     0.164280000000    -0.364647   
O4       O      0.090060000000     0.989990000000     0.164280000000    -0.36395    
O5       O      0.164270000000     0.989990000000     0.090060000000    -0.363991   
O6       O      0.816630000000     0.990920000000     0.090060000000    -0.364046   
O7       O      0.991790000000     0.890840000000     0.164260000000    -0.364641   
O8       O      0.989120000000     0.090060000000     0.164260000000    -0.363875   
O9       O      0.052380000000     0.928530000000     0.052380000000    -0.501968   
O10      O      0.928520000000     0.052380000000     0.052380000000    -0.501921   
O11      O      0.928330000000     0.928310000000     0.052570000000    -0.648365   
O12      O      0.052570000000     0.052590000000     0.052570000000    -0.646574   
O13      O      0.989340000000     0.816630000000     0.890850000000    -0.364783   
O14      O      0.991560000000     0.164280000000     0.890850000000    -0.364639   
O15      O      0.816640000000     0.890840000000     0.989120000000    -0.364701   
O16      O      0.164260000000     0.890840000000     0.991790000000    -0.364651   
O17      O      0.164260000000     0.090060000000     0.989120000000    -0.363878   
O18      O      0.816640000000     0.090060000000     0.991790000000    -0.363933   
O19      O      0.890840000000     0.989990000000     0.816630000000    -0.364741   
O20      O      0.090060000000     0.990920000000     0.816630000000    -0.364057   
O21      O      0.816630000000     0.989990000000     0.890840000000    -0.36475    
O22      O      0.164270000000     0.990920000000     0.890840000000    -0.364701   
O23      O      0.890840000000     0.816630000000     0.989340000000    -0.364759   
O24      O      0.890840000000     0.164280000000     0.991560000000    -0.364672   
O25      O      0.090060000000     0.164280000000     0.989340000000    -0.363981   
O26      O      0.090060000000     0.816630000000     0.991560000000    -0.364073   
O27      O      0.989110000000     0.890840000000     0.816640000000    -0.36467    
O28      O      0.991790000000     0.090060000000     0.816640000000    -0.363903   
O29      O      0.052380000000     0.052380000000     0.928520000000    -0.501919   
O30      O      0.928520000000     0.928530000000     0.928520000000    -0.50389    
O31      O      0.928330000000     0.052590000000     0.928340000000    -0.648347   
O32      O      0.052570000000     0.928310000000     0.928340000000    -0.648463   
O33      O      0.989110000000     0.316640000000     0.390840000000    -0.36482    
O34      O      0.991790000000     0.664260000000     0.390840000000    -0.364892   
O35      O      0.890840000000     0.489340000000     0.316630000000    -0.364598   
O36      O      0.090060000000     0.491560000000     0.316630000000    -0.363889   
O37      O      0.164260000000     0.491790000000     0.390850000000    -0.364583   
O38      O      0.816640000000     0.489120000000     0.390840000000    -0.364673   
O39      O      0.991560000000     0.590060000000     0.316630000000    -0.364919   
O40      O      0.989340000000     0.390850000000     0.316630000000    -0.364873   
O41      O      0.052380000000     0.552390000000     0.428530000000    -0.503307   
O42      O      0.928520000000     0.428520000000     0.428530000000    -0.50429    
O43      O      0.928330000000     0.552570000000     0.428310000000    -0.649694   
O44      O      0.052570000000     0.428340000000     0.428310000000    -0.648772   
O45      O      0.989110000000     0.664270000000     0.590060000000    -0.364766   
O46      O      0.991790000000     0.316640000000     0.590060000000    -0.364754   
O47      O      0.816630000000     0.590060000000     0.490920000000    -0.364704   
O48      O      0.164270000000     0.590060000000     0.489990000000    -0.364654   
O49      O      0.164270000000     0.390840000000     0.490920000000    -0.364659   
O50      O      0.816630000000     0.390840000000     0.489990000000    -0.364719   
O51      O      0.890840000000     0.491560000000     0.664280000000    -0.364616   
O52      O      0.090060000000     0.489340000000     0.664280000000    -0.363922   
O53      O      0.816640000000     0.491790000000     0.590060000000    -0.364602   
O54      O      0.164260000000     0.489110000000     0.590060000000    -0.364546   
O55      O      0.890840000000     0.664280000000     0.490920000000    -0.364578   
O56      O      0.890840000000     0.316630000000     0.489990000000    -0.364584   
O57      O      0.090060000000     0.316630000000     0.490910000000    -0.363897   
O58      O      0.090060000000     0.664280000000     0.489990000000    -0.363893   
O59      O      0.989340000000     0.590060000000     0.664280000000    -0.364912   
O60      O      0.991560000000     0.390850000000     0.664280000000    -0.364887   
O61      O      0.052380000000     0.428520000000     0.552380000000    -0.503277   
O62      O      0.928520000000     0.552390000000     0.552380000000    -0.504212   
O63      O      0.928330000000     0.428340000000     0.552590000000    -0.649611   
O64      O      0.052570000000     0.552570000000     0.552600000000    -0.648754   
O65      O      0.664270000000     0.989700000000     0.390840000000    -0.364981   
O66      O      0.316630000000     0.991200000000     0.390840000000    -0.36494    
O67      O      0.491200000000     0.890840000000     0.316630000000    -0.364639   
O68      O      0.489700000000     0.090060000000     0.316630000000    -0.363849   
O69      O      0.489700000000     0.164270000000     0.390850000000    -0.364662   
O70      O      0.491200000000     0.816640000000     0.390840000000    -0.364806   
O71      O      0.390840000000     0.991200000000     0.316630000000    -0.364937   
O72      O      0.590060000000     0.989700000000     0.316630000000    -0.364884   
O73      O      0.428480000000     0.052430000000     0.428480000000    -0.503181   
O74      O      0.552430000000     0.928480000000     0.428480000000    -0.504137   
O75      O      0.428370000000     0.928370000000     0.428370000000    -0.650086   
O76      O      0.552530000000     0.052540000000     0.428370000000    -0.649248   
O77      O      0.316630000000     0.989700000000     0.590060000000    -0.364871   
O78      O      0.664270000000     0.991200000000     0.590060000000    -0.364922   
O79      O      0.390840000000     0.816630000000     0.491200000000    -0.364761   
O80      O      0.390840000000     0.164270000000     0.489710000000    -0.364702   
O81      O      0.590060000000     0.164270000000     0.491200000000    -0.364641   
O82      O      0.590060000000     0.816630000000     0.489700000000    -0.364705   
O83      O      0.489700000000     0.890840000000     0.664270000000    -0.364671   
O84      O      0.491200000000     0.090060000000     0.664280000000    -0.363877   
O85      O      0.489700000000     0.816630000000     0.590060000000    -0.364705   
O86      O      0.491200000000     0.164270000000     0.590060000000    -0.364639   
O87      O      0.316630000000     0.890840000000     0.491200000000    -0.364629   
O88      O      0.664270000000     0.890840000000     0.489700000000    -0.364669   
O89      O      0.664270000000     0.090060000000     0.491200000000    -0.363915   
O90      O      0.316630000000     0.090060000000     0.489700000000    -0.363874   
O91      O      0.390840000000     0.989700000000     0.664270000000    -0.364912   
O92      O      0.590060000000     0.991200000000     0.664270000000    -0.364924   
O93      O      0.552430000000     0.052430000000     0.552430000000    -0.503127   
O94      O      0.428480000000     0.928480000000     0.552430000000    -0.504131   
O95      O      0.552530000000     0.928370000000     0.552540000000    -0.650123   
O96      O      0.428370000000     0.052530000000     0.552540000000    -0.649181   
O97      O      0.316630000000     0.390850000000     0.989340000000    -0.364886   
O98      O      0.664280000000     0.390850000000     0.991560000000    -0.364881   
O99      O      0.489990000000     0.316630000000     0.890840000000    -0.364659   
O100     O      0.490910000000     0.316630000000     0.090060000000    -0.363891   
O101     O      0.490910000000     0.390840000000     0.164280000000    -0.364622   
O102     O      0.489990000000     0.390840000000     0.816630000000    -0.364726   
O103     O      0.590060000000     0.316640000000     0.991790000000    -0.36475    
O104     O      0.390840000000     0.316640000000     0.989120000000    -0.364813   
O105     O      0.552380000000     0.428520000000     0.052380000000    -0.503276   
O106     O      0.428520000000     0.428520000000     0.928520000000    -0.504236   
O107     O      0.552590000000     0.428340000000     0.928340000000    -0.649557   
O108     O      0.428310000000     0.428340000000     0.052570000000    -0.648744   
O109     O      0.664280000000     0.590060000000     0.989340000000    -0.36492    
O110     O      0.316630000000     0.590060000000     0.991570000000    -0.364916   
O111     O      0.590060000000     0.491790000000     0.816640000000    -0.364567   
O112     O      0.590060000000     0.489120000000     0.164260000000    -0.364547   
O113     O      0.390840000000     0.491790000000     0.164260000000    -0.364606   
O114     O      0.390840000000     0.489110000000     0.816640000000    -0.364576   
O115     O      0.490910000000     0.664280000000     0.890840000000    -0.364591   
O116     O      0.489990000000     0.664280000000     0.090060000000    -0.363909   
O117     O      0.490910000000     0.590060000000     0.816630000000    -0.364712   
O118     O      0.489990000000     0.590070000000     0.164280000000    -0.364642   
O119     O      0.664280000000     0.491560000000     0.890850000000    -0.364577   
O120     O      0.316630000000     0.489340000000     0.890850000000    -0.364642   
O121     O      0.316630000000     0.491560000000     0.090060000000    -0.363929   
O122     O      0.664280000000     0.489340000000     0.090060000000    -0.363929   
O123     O      0.590060000000     0.664260000000     0.989110000000    -0.364809   
O124     O      0.390840000000     0.664270000000     0.991790000000    -0.364835   
O125     O      0.428520000000     0.552390000000     0.052380000000    -0.50325    
O126     O      0.552380000000     0.552390000000     0.928520000000    -0.504209   
O127     O      0.428310000000     0.552570000000     0.928340000000    -0.649614   
O128     O      0.552590000000     0.552570000000     0.052570000000    -0.648705   
Zr1      Zr     0.990450000000     0.990450000000     0.113910000000     1.41702    
Zr2      Zr     0.990450000000     0.866990000000     0.990450000000     1.41689    
Zr3      Zr     0.990450000000     0.113920000000     0.990450000000     1.41699    
Zr4      Zr     0.866990000000     0.990450000000     0.990450000000     1.41692    
Zr5      Zr     0.113910000000     0.990450000000     0.990450000000     1.4171     
Zr6      Zr     0.990450000000     0.990450000000     0.866990000000     1.41683    
Zr7      Zr     0.990450000000     0.490450000000     0.366990000000     1.41906    
Zr8      Zr     0.990450000000     0.613910000000     0.490450000000     1.41901    
Zr9      Zr     0.990450000000     0.366990000000     0.490450000000     1.41906    
Zr10     Zr     0.866990000000     0.490450000000     0.490450000000     1.42113    
Zr11     Zr     0.113910000000     0.490450000000     0.490450000000     1.42128    
Zr12     Zr     0.990450000000     0.490450000000     0.613920000000     1.41898    
Zr13     Zr     0.490450000000     0.990450000000     0.366990000000     1.41915    
Zr14     Zr     0.366990000000     0.990450000000     0.490450000000     1.41914    
Zr15     Zr     0.613910000000     0.990450000000     0.490450000000     1.41911    
Zr16     Zr     0.490450000000     0.866990000000     0.490450000000     1.42118    
Zr17     Zr     0.490450000000     0.113910000000     0.490450000000     1.42141    
Zr18     Zr     0.490450000000     0.990450000000     0.613910000000     1.41921    
Zr19     Zr     0.490450000000     0.366990000000     0.990450000000     1.41905    
Zr20     Zr     0.613920000000     0.490450000000     0.990450000000     1.41901    
Zr21     Zr     0.366980000000     0.490450000000     0.990450000000     1.41914    
Zr22     Zr     0.490450000000     0.490450000000     0.866990000000     1.421      
Zr23     Zr     0.490450000000     0.490450000000     0.113910000000     1.42119    
Zr24     Zr     0.490450000000     0.613910000000     0.990450000000     1.41904    


