data_structure

_audit_creation_method RASPA-1.0
_audit_creation_date 2023-5-19
_audit_author_name 'Poobodin Mano'

_cell_length_a    21.519
_cell_length_b    21.519
_cell_length_c    21.5188
_cell_angle_alpha 90
_cell_angle_beta  90
_cell_angle_gamma 90
_cell_volume      9964.65

_symmetry_cell_setting          triclinic
_symmetry_space_group_name_Hall 'P 1'
_symmetry_space_group_name_H-M  'P 1'
_symmetry_Int_Tables_number     1

_symmetry_equiv_pos_as_xyz 'x,y,z'

loop_
_atom_site_label
_atom_site_type_symbol
_atom_site_fract_x
_atom_site_fract_y
_atom_site_fract_z
_atom_site_charge
C1       C      0.996280000000     0.156750000000     0.156750000000     0.39529    
C2       C      0.999560000000     0.839080000000     0.156750000000     0.393819   
C3       C      0.839080000000     0.998430000000     0.156760000000     0.395218   
C4       C      0.156750000000     0.997400000000     0.156750000000     0.395281   
C5       C      0.996270000000     0.839080000000     0.839090000000     0.395439   
C6       C      0.999550000000     0.156750000000     0.839090000000     0.39396    
C7       C      0.839090000000     0.839080000000     0.996280000000     0.395341   
C8       C      0.156740000000     0.839080000000     0.999560000000     0.394019   
C9       C      0.156740000000     0.156750000000     0.996280000000     0.395355   
C10      C      0.839090000000     0.156750000000     0.999560000000     0.39395    
C11      C      0.839080000000     0.997400000000     0.839080000000     0.395362   
C12      C      0.156750000000     0.998430000000     0.839080000000     0.395338   
C13      C      0.996280000000     0.339090000000     0.339080000000     0.395593   
C14      C      0.999560000000     0.656740000000     0.339080000000     0.394125   
C15      C      0.839090000000     0.496270000000     0.339080000000     0.395718   
C16      C      0.156750000000     0.499560000000     0.339090000000     0.395716   
C17      C      0.996270000000     0.656740000000     0.656760000000     0.395574   
C18      C      0.999550000000     0.339090000000     0.656760000000     0.394087   
C19      C      0.839070000000     0.656750000000     0.498420000000     0.395599   
C20      C      0.156750000000     0.656760000000     0.497410000000     0.395557   
C21      C      0.156750000000     0.339080000000     0.498440000000     0.395684   
C22      C      0.839080000000     0.339080000000     0.497400000000     0.395605   
C23      C      0.839080000000     0.499550000000     0.656750000000     0.395765   
C24      C      0.156740000000     0.496270000000     0.656760000000     0.395723   
C25      C      0.656750000000     0.997040000000     0.339080000000     0.395416   
C26      C      0.339080000000     0.998800000000     0.339080000000     0.395445   
C27      C      0.498800000000     0.839090000000     0.339080000000     0.395771   
C28      C      0.497040000000     0.156750000000     0.339090000000     0.395788   
C29      C      0.339080000000     0.997030000000     0.656750000000     0.395547   
C30      C      0.656750000000     0.998790000000     0.656760000000     0.395443   
C31      C      0.339080000000     0.839080000000     0.498800000000     0.395741   
C32      C      0.339080000000     0.156750000000     0.497040000000     0.395596   
C33      C      0.656750000000     0.156750000000     0.498800000000     0.395554   
C34      C      0.656750000000     0.839080000000     0.497030000000     0.39562    
C35      C      0.497030000000     0.839080000000     0.656750000000     0.395648   
C36      C      0.498790000000     0.156740000000     0.656760000000     0.395595   
C37      C      0.339080000000     0.339090000000     0.996290000000     0.395595   
C38      C      0.656750000000     0.339090000000     0.999560000000     0.394188   
C39      C      0.497390000000     0.339070000000     0.839080000000     0.395589   
C40      C      0.498430000000     0.339080000000     0.156760000000     0.395558   
C41      C      0.656750000000     0.656740000000     0.996270000000     0.395531   
C42      C      0.339080000000     0.656740000000     0.999560000000     0.394139   
C43      C      0.656740000000     0.499550000000     0.839080000000     0.395742   
C44      C      0.656760000000     0.496280000000     0.156740000000     0.395733   
C45      C      0.339090000000     0.499560000000     0.156750000000     0.395742   
C46      C      0.339070000000     0.496270000000     0.839100000000     0.395717   
C47      C      0.498420000000     0.656750000000     0.839070000000     0.39561    
C48      C      0.497410000000     0.656760000000     0.156750000000     0.39554    
C49      C      0.497420000000     0.263700000000     0.309590000000     0.0292878  
C50      C      0.497420000000     0.186250000000     0.232140000000     0.02933    
C51      C      0.497940000000     0.232130000000     0.186260000000     0.029335   
C52      C      0.497940000000     0.309580000000     0.263710000000     0.0292074  
C53      C      0.498430000000     0.732140000000     0.309580000000     0.029245   
C54      C      0.498430000000     0.809590000000     0.232130000000     0.0292105  
C55      C      0.497900000000     0.763710000000     0.186250000000     0.0292169  
C56      C      0.497900000000     0.686250000000     0.263700000000     0.0291361  
C57      C      0.497920000000     0.763690000000     0.809580000000     0.0291353  
C58      C      0.497920000000     0.686250000000     0.732130000000     0.0291766  
C59      C      0.497400000000     0.732130000000     0.686250000000     0.0291687  
C60      C      0.497400000000     0.809580000000     0.763690000000     0.0291331  
C61      C      0.498410000000     0.186240000000     0.763710000000     0.0292037  
C62      C      0.498410000000     0.263690000000     0.686250000000     0.0291868  
C63      C      0.497890000000     0.309570000000     0.732140000000     0.0292113  
C64      C      0.497890000000     0.232120000000     0.809590000000     0.0292076  
C65      C      0.686250000000     0.263690000000     0.498420000000     0.0292488  
C66      C      0.763700000000     0.186240000000     0.498420000000     0.0291765  
C67      C      0.809580000000     0.232130000000     0.497900000000     0.0292634  
C68      C      0.732130000000     0.309580000000     0.497900000000     0.0291143  
C69      C      0.732130000000     0.686250000000     0.497920000000     0.0291845  
C70      C      0.809580000000     0.763700000000     0.497930000000     0.0290731  
C71      C      0.763690000000     0.809580000000     0.497410000000     0.0291852  
C72      C      0.686250000000     0.732130000000     0.497400000000     0.0291406  
C73      C      0.186250000000     0.232130000000     0.497950000000     0.0293065  
C74      C      0.263700000000     0.309580000000     0.497940000000     0.0292965  
C75      C      0.309590000000     0.263700000000     0.497420000000     0.02919    
C76      C      0.232130000000     0.186250000000     0.497430000000     0.0293504  
C77      C      0.186250000000     0.763700000000     0.497900000000     0.0292487  
C78      C      0.263700000000     0.686250000000     0.497900000000     0.0291359  
C79      C      0.309580000000     0.732140000000     0.498420000000     0.0292415  
C80      C      0.232130000000     0.809580000000     0.498420000000     0.0292111  
C81      C      0.809590000000     0.495720000000     0.232120000000     0.029207   
C82      C      0.732140000000     0.495520000000     0.309580000000     0.0291517  
C83      C      0.686260000000     0.495520000000     0.263690000000     0.0292317  
C84      C      0.763710000000     0.495720000000     0.186240000000     0.0292199  
C85      C      0.186250000000     0.500120000000     0.232140000000     0.0293341  
C86      C      0.263700000000     0.500320000000     0.309590000000     0.0292374  
C87      C      0.309590000000     0.500320000000     0.263700000000     0.029253   
C88      C      0.232140000000     0.500120000000     0.186250000000     0.029328   
C89      C      0.186240000000     0.495710000000     0.763710000000     0.0292454  
C90      C      0.263690000000     0.495510000000     0.686260000000     0.0292026  
C91      C      0.309570000000     0.495510000000     0.732140000000     0.0291908  
C92      C      0.232120000000     0.495710000000     0.809600000000     0.0291686  
C93      C      0.732130000000     0.500310000000     0.686250000000     0.0291657  
C94      C      0.809580000000     0.500110000000     0.763700000000     0.0290901  
C95      C      0.763690000000     0.500110000000     0.809580000000     0.0291228  
C96      C      0.686240000000     0.500310000000     0.732130000000     0.0291477  
C97      C      0.809580000000     0.732130000000     0.995700000000     0.028942   
C98      C      0.732140000000     0.809580000000     0.995510000000     0.0290007  
C99      C      0.686250000000     0.763690000000     0.995510000000     0.0289967  
C100     C      0.763700000000     0.686250000000     0.995700000000     0.0289418  
C101     C      0.809590000000     0.263700000000     0.000120000000     0.0294749  
C102     C      0.732140000000     0.186250000000     0.000310000000     0.0295366  
C103     C      0.686250000000     0.232140000000     0.000310000000     0.0295957  
C104     C      0.763700000000     0.309590000000     0.000120000000     0.0294293  
C105     C      0.186240000000     0.732130000000     0.000120000000     0.0295149  
C106     C      0.263690000000     0.809580000000     0.000320000000     0.0295057  
C107     C      0.309580000000     0.763690000000     0.000320000000     0.0294494  
C108     C      0.232130000000     0.686240000000     0.000120000000     0.029565   
C109     C      0.263690000000     0.186250000000     0.995520000000     0.029178   
C110     C      0.186240000000     0.263700000000     0.995730000000     0.0290769  
C111     C      0.232130000000     0.309580000000     0.995730000000     0.0290983  
C112     C      0.309580000000     0.232130000000     0.995530000000     0.0290872  
C113     C      0.809580000000     0.997900000000     0.732130000000     0.028938   
C114     C      0.732130000000     0.997890000000     0.809580000000     0.0289123  
C115     C      0.686250000000     0.998410000000     0.763700000000     0.0289734  
C116     C      0.763700000000     0.998420000000     0.686250000000     0.0289202  
C117     C      0.263700000000     0.997920000000     0.809580000000     0.0289767  
C118     C      0.186250000000     0.997920000000     0.732130000000     0.0290412  
C119     C      0.232130000000     0.997400000000     0.686250000000     0.0290452  
C120     C      0.309580000000     0.997400000000     0.763700000000     0.0289696  
C121     C      0.186250000000     0.997900000000     0.263700000000     0.0291308  
C122     C      0.263700000000     0.997910000000     0.186250000000     0.0291098  
C123     C      0.309580000000     0.998430000000     0.232130000000     0.0290656  
C124     C      0.232130000000     0.998430000000     0.309590000000     0.0290373  
C125     C      0.686250000000     0.997430000000     0.232140000000     0.0291023  
C126     C      0.763700000000     0.997400000000     0.309590000000     0.028948   
C127     C      0.809580000000     0.997920000000     0.263710000000     0.0289845  
C128     C      0.732130000000     0.997950000000     0.186250000000     0.0289932  
C129     C      0.000110000000     0.263700000000     0.809590000000     0.0294725  
C130     C      0.000310000000     0.186250000000     0.732140000000     0.0295597  
C131     C      0.000310000000     0.232140000000     0.686250000000     0.0295625  
C132     C      0.000110000000     0.309590000000     0.763700000000     0.0294649  
C133     C      0.995700000000     0.732130000000     0.809590000000     0.0289454  
C134     C      0.995500000000     0.809580000000     0.732140000000     0.0289998  
C135     C      0.995500000000     0.763690000000     0.686250000000     0.0289489  
C136     C      0.995700000000     0.686240000000     0.763700000000     0.0289862  
C137     C      0.000120000000     0.686240000000     0.232130000000     0.0295185  
C138     C      0.000320000000     0.763690000000     0.309580000000     0.0294828  
C139     C      0.000320000000     0.809580000000     0.263700000000     0.0294892  
C140     C      0.000120000000     0.732130000000     0.186250000000     0.0295355  
C141     C      0.995720000000     0.263700000000     0.186250000000     0.0291242  
C142     C      0.995520000000     0.186250000000     0.263700000000     0.0291108  
C143     C      0.995520000000     0.232140000000     0.309580000000     0.0291591  
C144     C      0.995730000000     0.309590000000     0.232130000000     0.0290578  
H1       H      0.908980000000     0.908870000000     0.086850000000     0.211077   
H2       H      0.086850000000     0.086950000000     0.086850000000     0.211496   
H3       H      0.908980000000     0.086950000000     0.908990000000     0.211181   
H4       H      0.086840000000     0.908870000000     0.908990000000     0.211251   
H5       H      0.908990000000     0.586840000000     0.408870000000     0.211056   
H6       H      0.086850000000     0.408980000000     0.408880000000     0.21119    
H7       H      0.908980000000     0.408980000000     0.586960000000     0.210978   
H8       H      0.086840000000     0.586840000000     0.586960000000     0.211232   
H9       H      0.408990000000     0.909000000000     0.408990000000     0.211561   
H10      H      0.586840000000     0.086840000000     0.409000000000     0.211693   
H11      H      0.586840000000     0.908990000000     0.586840000000     0.211467   
H12      H      0.408990000000     0.086830000000     0.586840000000     0.211771   
H13      H      0.586950000000     0.408980000000     0.908990000000     0.211055   
H14      H      0.408880000000     0.408990000000     0.086850000000     0.211258   
H15      H      0.408870000000     0.586840000000     0.908990000000     0.211136   
H16      H      0.586960000000     0.586850000000     0.086840000000     0.211234   
H17      H      0.497260000000     0.278780000000     0.357670000000     0.0357361  
H18      H      0.497250000000     0.138170000000     0.217070000000     0.0362407  
H19      H      0.498100000000     0.217060000000     0.138180000000     0.036191   
H20      H      0.498110000000     0.357660000000     0.278780000000     0.0357484  
H21      H      0.498590000000     0.717060000000     0.357660000000     0.0357217  
H22      H      0.498580000000     0.857670000000     0.217060000000     0.0357973  
H23      H      0.497740000000     0.778780000000     0.138170000000     0.0359947  
H24      H      0.497740000000     0.638180000000     0.278770000000     0.0357447  
H25      H      0.498090000000     0.778770000000     0.857650000000     0.0355347  
H26      H      0.498080000000     0.638170000000     0.717050000000     0.035716   
H27      H      0.497240000000     0.717060000000     0.638170000000     0.0357399  
H28      H      0.497240000000     0.857650000000     0.778770000000     0.0355934  
H29      H      0.498570000000     0.138160000000     0.778780000000     0.0360378  
H30      H      0.498570000000     0.278770000000     0.638180000000     0.0357414  
H31      H      0.497720000000     0.357650000000     0.717060000000     0.035715   
H32      H      0.497720000000     0.217050000000     0.857670000000     0.0357321  
H33      H      0.638170000000     0.278770000000     0.498580000000     0.0357256  
H34      H      0.778770000000     0.138170000000     0.498590000000     0.0360438  
H35      H      0.857660000000     0.217050000000     0.497730000000     0.0357169  
H36      H      0.717060000000     0.357650000000     0.497730000000     0.0357421  
H37      H      0.717050000000     0.638170000000     0.498090000000     0.0357159  
H38      H      0.857650000000     0.778770000000     0.498100000000     0.0355542  
H39      H      0.778770000000     0.857660000000     0.497250000000     0.0355834  
H40      H      0.638170000000     0.717060000000     0.497240000000     0.035745   
H41      H      0.138180000000     0.217060000000     0.498120000000     0.0361983  
H42      H      0.278780000000     0.357660000000     0.498100000000     0.0357288  
H43      H      0.357660000000     0.278770000000     0.497250000000     0.035765   
H44      H      0.217060000000     0.138170000000     0.497270000000     0.0362376  
H45      H      0.138170000000     0.778780000000     0.497740000000     0.0359765  
H46      H      0.278770000000     0.638180000000     0.497740000000     0.0357449  
H47      H      0.357660000000     0.717060000000     0.498580000000     0.0357202  
H48      H      0.217060000000     0.857660000000     0.498580000000     0.035796   
H49      H      0.857670000000     0.495790000000     0.217050000000     0.0357016  
H50      H      0.717070000000     0.495430000000     0.357650000000     0.0357617  
H51      H      0.638180000000     0.495440000000     0.278760000000     0.0357481  
H52      H      0.778780000000     0.495800000000     0.138160000000     0.0359514  
H53      H      0.138170000000     0.500040000000     0.217060000000     0.0361474  
H54      H      0.278770000000     0.500400000000     0.357670000000     0.0357618  
H55      H      0.357660000000     0.500400000000     0.278780000000     0.0357492  
H56      H      0.217060000000     0.500040000000     0.138180000000     0.0361449  
H57      H      0.138160000000     0.495780000000     0.778790000000     0.03594    
H58      H      0.278760000000     0.495430000000     0.638190000000     0.0357587  
H59      H      0.357650000000     0.495430000000     0.717070000000     0.0357526  
H60      H      0.217050000000     0.495780000000     0.857670000000     0.0357093  
H61      H      0.717060000000     0.500390000000     0.638170000000     0.0357458  
H62      H      0.857650000000     0.500030000000     0.778770000000     0.0355029  
H63      H      0.778770000000     0.500030000000     0.857660000000     0.0354931  
H64      H      0.638170000000     0.500390000000     0.717060000000     0.0357521  
H65      H      0.857660000000     0.717060000000     0.995770000000     0.0353402  
H66      H      0.717060000000     0.857660000000     0.995440000000     0.0354331  
H67      H      0.638170000000     0.778770000000     0.995440000000     0.0354485  
H68      H      0.778770000000     0.638170000000     0.995770000000     0.0353992  
H69      H      0.857660000000     0.278770000000     0.000060000000     0.0361961  
H70      H      0.717070000000     0.138170000000     0.000380000000     0.0367391  
H71      H      0.638170000000     0.217060000000     0.000380000000     0.0364926  
H72      H      0.778770000000     0.357660000000     0.000050000000     0.0362628  
H73      H      0.138170000000     0.717060000000     0.000040000000     0.0366498  
H74      H      0.278760000000     0.857650000000     0.000400000000     0.0363041  
H75      H      0.357650000000     0.778760000000     0.000400000000     0.0363274  
H76      H      0.217050000000     0.638170000000     0.000050000000     0.0364439  
H77      H      0.278770000000     0.138170000000     0.995440000000     0.0358691  
H78      H      0.138170000000     0.278770000000     0.995810000000     0.035798   
H79      H      0.217060000000     0.357660000000     0.995810000000     0.0355967  
H80      H      0.357660000000     0.217060000000     0.995440000000     0.0356594  
H81      H      0.857660000000     0.997730000000     0.717060000000     0.0353663  
H82      H      0.717060000000     0.997710000000     0.857660000000     0.0353725  
H83      H      0.638170000000     0.998570000000     0.778780000000     0.0354224  
H84      H      0.778770000000     0.998580000000     0.638170000000     0.0354445  
H85      H      0.278770000000     0.998090000000     0.857660000000     0.0353747  
H86      H      0.138170000000     0.998100000000     0.717060000000     0.0358213  
H87      H      0.217060000000     0.997250000000     0.638170000000     0.035645   
H88      H      0.357660000000     0.997240000000     0.778770000000     0.0354469  
H89      H      0.138170000000     0.997730000000     0.278780000000     0.0358194  
H90      H      0.278780000000     0.997740000000     0.138170000000     0.0358199  
H91      H      0.357660000000     0.998590000000     0.217060000000     0.0356471  
H92      H      0.217060000000     0.998590000000     0.357660000000     0.0356543  
H93      H      0.638170000000     0.997280000000     0.217060000000     0.0356261  
H94      H      0.778770000000     0.997230000000     0.357660000000     0.0354543  
H95      H      0.857660000000     0.998080000000     0.278780000000     0.0353741  
H96      H      0.717060000000     0.998120000000     0.138180000000     0.0358311  
H97      H      0.000030000000     0.278770000000     0.857670000000     0.036198   
H98      H      0.000400000000     0.138170000000     0.717060000000     0.0367283  
H99      H      0.000400000000     0.217060000000     0.638180000000     0.0364991  
H100     H      0.000030000000     0.357660000000     0.778780000000     0.0362519  
H101     H      0.995780000000     0.717060000000     0.857670000000     0.035339   
H102     H      0.995420000000     0.857660000000     0.717060000000     0.03543    
H103     H      0.995420000000     0.778760000000     0.638180000000     0.0354641  
H104     H      0.995780000000     0.638170000000     0.778780000000     0.0353848  
H105     H      0.000050000000     0.638170000000     0.217060000000     0.0364566  
H106     H      0.000400000000     0.778760000000     0.357660000000     0.0363189  
H107     H      0.000400000000     0.857660000000     0.278770000000     0.0363086  
H108     H      0.000050000000     0.717060000000     0.138170000000     0.0366466  
H109     H      0.995800000000     0.278770000000     0.138170000000     0.0357868  
H110     H      0.995440000000     0.138170000000     0.278770000000     0.0358942  
H111     H      0.995440000000     0.217060000000     0.357660000000     0.0356395  
H112     H      0.995800000000     0.357660000000     0.217060000000     0.0356058  
N1       N      0.497200000000     0.201950000000     0.293900000000    -0.174536   
N2       N      0.498180000000     0.293890000000     0.201950000000    -0.17452    
N3       N      0.498640000000     0.793890000000     0.293890000000    -0.174605   
N4       N      0.497660000000     0.701950000000     0.201940000000    -0.174528   
N5       N      0.498170000000     0.701940000000     0.793880000000    -0.174635   
N6       N      0.497180000000     0.793880000000     0.701940000000    -0.174594   
N7       N      0.498630000000     0.201940000000     0.701950000000    -0.174508   
N8       N      0.497640000000     0.293880000000     0.793890000000    -0.174613   
N9       N      0.701940000000     0.201940000000     0.498640000000    -0.174534   
N10      N      0.793890000000     0.293880000000     0.497650000000    -0.174582   
N11      N      0.793880000000     0.701940000000     0.498170000000    -0.174616   
N12      N      0.701940000000     0.793890000000     0.497190000000    -0.174613   
N13      N      0.201950000000     0.293890000000     0.498190000000    -0.174525   
N14      N      0.293890000000     0.201940000000     0.497200000000    -0.174506   
N15      N      0.201940000000     0.701950000000     0.497660000000    -0.174545   
N16      N      0.293890000000     0.793890000000     0.498640000000    -0.174628   
N17      N      0.793900000000     0.495780000000     0.293880000000    -0.174561   
N18      N      0.701950000000     0.495780000000     0.201930000000    -0.174548   
N19      N      0.201940000000     0.500060000000     0.293900000000    -0.174525   
N20      N      0.293890000000     0.500060000000     0.201950000000    -0.174494   
N21      N      0.201930000000     0.495770000000     0.701950000000    -0.174544   
N22      N      0.293880000000     0.495770000000     0.793900000000    -0.174561   
N23      N      0.793890000000     0.500050000000     0.701940000000    -0.174616   
N24      N      0.701930000000     0.500050000000     0.793890000000    -0.174611   
N25      N      0.793890000000     0.793890000000     0.995770000000    -0.174605   
N26      N      0.701940000000     0.701940000000     0.995770000000    -0.174643   
N27      N      0.793900000000     0.201940000000     0.000050000000    -0.173512   
N28      N      0.701940000000     0.293890000000     0.000050000000    -0.173592   
N29      N      0.201930000000     0.793890000000     0.000060000000    -0.173517   
N30      N      0.293880000000     0.701930000000     0.000060000000    -0.173577   
N31      N      0.201940000000     0.201940000000     0.995780000000    -0.174475   
N32      N      0.293890000000     0.293890000000     0.995790000000    -0.174616   
N33      N      0.793890000000     0.997650000000     0.793890000000    -0.174665   
N34      N      0.701940000000     0.998630000000     0.701950000000    -0.174679   
N35      N      0.201940000000     0.998170000000     0.793890000000    -0.174595   
N36      N      0.293890000000     0.997180000000     0.701940000000    -0.17467    
N37      N      0.201950000000     0.997650000000     0.201950000000    -0.174484   
N38      N      0.293890000000     0.998640000000     0.293890000000    -0.17463    
N39      N      0.701940000000     0.997190000000     0.293890000000    -0.174656   
N40      N      0.793890000000     0.998180000000     0.201950000000    -0.174565   
N41      N      0.000050000000     0.201940000000     0.793900000000    -0.173518   
N42      N      0.000050000000     0.293890000000     0.701950000000    -0.17358    
N43      N      0.995770000000     0.793890000000     0.793900000000    -0.174643   
N44      N      0.995770000000     0.701930000000     0.701950000000    -0.17467    
N45      N      0.000060000000     0.701930000000     0.293890000000    -0.173596   
N46      N      0.000060000000     0.793890000000     0.201940000000    -0.173488   
N47      N      0.995780000000     0.201940000000     0.201940000000    -0.174481   
N48      N      0.995790000000     0.293890000000     0.293890000000    -0.174626   
O1       O      0.996810000000     0.174150000000     0.099120000000    -0.373788   
O2       O      0.999030000000     0.821670000000     0.099120000000    -0.373824   
O3       O      0.896710000000     0.998330000000     0.174160000000    -0.374618   
O4       O      0.099130000000     0.997500000000     0.174160000000    -0.373848   
O5       O      0.174150000000     0.997500000000     0.099130000000    -0.373873   
O6       O      0.821680000000     0.998330000000     0.099130000000    -0.373836   
O7       O      0.999270000000     0.896710000000     0.174150000000    -0.3745     
O8       O      0.996560000000     0.099120000000     0.174150000000    -0.373623   
O9       O      0.060800000000     0.935040000000     0.060800000000    -0.504095   
O10      O      0.935030000000     0.060790000000     0.060800000000    -0.504018   
O11      O      0.934860000000     0.934840000000     0.060970000000    -0.651369   
O12      O      0.060970000000     0.060990000000     0.060970000000    -0.649284   
O13      O      0.996800000000     0.821670000000     0.896710000000    -0.374688   
O14      O      0.999030000000     0.174150000000     0.896710000000    -0.374702   
O15      O      0.821680000000     0.896710000000     0.996560000000    -0.374491   
O16      O      0.174140000000     0.896700000000     0.999270000000    -0.374569   
O17      O      0.174140000000     0.099120000000     0.996560000000    -0.373645   
O18      O      0.821690000000     0.099120000000     0.999270000000    -0.373735   
O19      O      0.896700000000     0.997500000000     0.821680000000    -0.374717   
O20      O      0.099130000000     0.998320000000     0.821680000000    -0.373912   
O21      O      0.821680000000     0.997500000000     0.896710000000    -0.374705   
O22      O      0.174150000000     0.998320000000     0.896710000000    -0.374662   
O23      O      0.896710000000     0.821670000000     0.996810000000    -0.37466    
O24      O      0.896710000000     0.174150000000     0.999030000000    -0.374698   
O25      O      0.099120000000     0.174150000000     0.996810000000    -0.373846   
O26      O      0.099120000000     0.821670000000     0.999030000000    -0.373925   
O27      O      0.996560000000     0.896710000000     0.821690000000    -0.37455    
O28      O      0.999270000000     0.099120000000     0.821690000000    -0.37374    
O29      O      0.060800000000     0.060790000000     0.935030000000    -0.504042   
O30      O      0.935030000000     0.935040000000     0.935030000000    -0.506402   
O31      O      0.934860000000     0.060990000000     0.934860000000    -0.651475   
O32      O      0.060970000000     0.934840000000     0.934860000000    -0.65155    
O33      O      0.996570000000     0.321690000000     0.396710000000    -0.374692   
O34      O      0.999270000000     0.674140000000     0.396710000000    -0.374794   
O35      O      0.896720000000     0.496800000000     0.321670000000    -0.374469   
O36      O      0.099130000000     0.499030000000     0.321680000000    -0.373665   
O37      O      0.174150000000     0.499270000000     0.396720000000    -0.374441   
O38      O      0.821690000000     0.496560000000     0.396700000000    -0.374513   
O39      O      0.999030000000     0.599120000000     0.321680000000    -0.374895   
O40      O      0.996810000000     0.396710000000     0.321680000000    -0.374883   
O41      O      0.060800000000     0.560800000000     0.435040000000    -0.505734   
O42      O      0.935030000000     0.435030000000     0.435030000000    -0.506933   
O43      O      0.934860000000     0.560970000000     0.434840000000    -0.65308    
O44      O      0.060970000000     0.434860000000     0.434840000000    -0.65199    
O45      O      0.996550000000     0.674140000000     0.599130000000    -0.374757   
O46      O      0.999270000000     0.321690000000     0.599130000000    -0.374724   
O47      O      0.821680000000     0.599120000000     0.498320000000    -0.374606   
O48      O      0.174150000000     0.599130000000     0.497510000000    -0.374524   
O49      O      0.174160000000     0.396700000000     0.498340000000    -0.374589   
O50      O      0.821680000000     0.396700000000     0.497500000000    -0.374659   
O51      O      0.896700000000     0.499020000000     0.674150000000    -0.374587   
O52      O      0.099110000000     0.496800000000     0.674160000000    -0.373713   
O53      O      0.821680000000     0.499270000000     0.599120000000    -0.374465   
O54      O      0.174140000000     0.496560000000     0.599140000000    -0.374448   
O55      O      0.896700000000     0.674150000000     0.498330000000    -0.374505   
O56      O      0.896710000000     0.321670000000     0.497500000000    -0.37447    
O57      O      0.099130000000     0.321680000000     0.498340000000    -0.373724   
O58      O      0.099120000000     0.674150000000     0.497510000000    -0.373764   
O59      O      0.996800000000     0.599120000000     0.674160000000    -0.374902   
O60      O      0.999020000000     0.396710000000     0.674160000000    -0.374952   
O61      O      0.060800000000     0.435030000000     0.560800000000    -0.505778   
O62      O      0.935030000000     0.560800000000     0.560800000000    -0.506887   
O63      O      0.934860000000     0.434860000000     0.561000000000    -0.653067   
O64      O      0.060960000000     0.560970000000     0.561000000000    -0.652025   
O65      O      0.674150000000     0.997190000000     0.396710000000    -0.374835   
O66      O      0.321680000000     0.998640000000     0.396710000000    -0.374794   
O67      O      0.498640000000     0.896710000000     0.321680000000    -0.374514   
O68      O      0.497200000000     0.099130000000     0.321690000000    -0.373722   
O69      O      0.497200000000     0.174150000000     0.396710000000    -0.374617   
O70      O      0.498640000000     0.821680000000     0.396700000000    -0.374642   
O71      O      0.396710000000     0.998640000000     0.321680000000    -0.374828   
O72      O      0.599120000000     0.997200000000     0.321680000000    -0.37478    
O73      O      0.434980000000     0.060850000000     0.434990000000    -0.505688   
O74      O      0.560850000000     0.934980000000     0.434980000000    -0.506788   
O75      O      0.434900000000     0.934900000000     0.434900000000    -0.653647   
O76      O      0.560930000000     0.060930000000     0.434900000000    -0.652489   
O77      O      0.321680000000     0.997190000000     0.599130000000    -0.374876   
O78      O      0.674150000000     0.998630000000     0.599130000000    -0.374861   
O79      O      0.396700000000     0.821680000000     0.498630000000    -0.374651   
O80      O      0.396710000000     0.174150000000     0.497200000000    -0.374545   
O81      O      0.599120000000     0.174150000000     0.498640000000    -0.374523   
O82      O      0.599120000000     0.821680000000     0.497190000000    -0.374565   
O83      O      0.497190000000     0.896700000000     0.674150000000    -0.374551   
O84      O      0.498630000000     0.099120000000     0.674160000000    -0.373727   
O85      O      0.497190000000     0.821670000000     0.599120000000    -0.374554   
O86      O      0.498630000000     0.174150000000     0.599130000000    -0.374526   
O87      O      0.321680000000     0.896710000000     0.498640000000    -0.374487   
O88      O      0.674150000000     0.896710000000     0.497190000000    -0.3745     
O89      O      0.674150000000     0.099120000000     0.498640000000    -0.373662   
O90      O      0.321680000000     0.099120000000     0.497200000000    -0.373603   
O91      O      0.396710000000     0.997190000000     0.674150000000    -0.374925   
O92      O      0.599120000000     0.998630000000     0.674150000000    -0.374896   
O93      O      0.560850000000     0.060850000000     0.560850000000    -0.505619   
O94      O      0.434980000000     0.934980000000     0.560850000000    -0.506849   
O95      O      0.560930000000     0.934900000000     0.560930000000    -0.653498   
O96      O      0.434900000000     0.060930000000     0.560940000000    -0.652591   
O97      O      0.321680000000     0.396710000000     0.996820000000    -0.374891   
O98      O      0.674150000000     0.396710000000     0.999030000000    -0.374997   
O99      O      0.497500000000     0.321670000000     0.896710000000    -0.37449    
O100     O      0.498330000000     0.321680000000     0.099130000000    -0.373653   
O101     O      0.498330000000     0.396710000000     0.174160000000    -0.374552   
O102     O      0.497500000000     0.396700000000     0.821680000000    -0.374607   
O103     O      0.599130000000     0.321690000000     0.999270000000    -0.374771   
O104     O      0.396710000000     0.321690000000     0.996570000000    -0.374724   
O105     O      0.560800000000     0.435030000000     0.060800000000    -0.505704   
O106     O      0.435030000000     0.435030000000     0.935040000000    -0.506983   
O107     O      0.560990000000     0.434860000000     0.934860000000    -0.653138   
O108     O      0.434840000000     0.434860000000     0.060970000000    -0.652038   
O109     O      0.674150000000     0.599120000000     0.996800000000    -0.374909   
O110     O      0.321670000000     0.599120000000     0.999030000000    -0.374872   
O111     O      0.599120000000     0.499260000000     0.821680000000    -0.37451    
O112     O      0.599130000000     0.496570000000     0.174140000000    -0.374452   
O113     O      0.396710000000     0.499280000000     0.174150000000    -0.374482   
O114     O      0.396700000000     0.496560000000     0.821690000000    -0.374453   
O115     O      0.498320000000     0.674150000000     0.896700000000    -0.37452    
O116     O      0.497510000000     0.674160000000     0.099120000000    -0.373732   
O117     O      0.498320000000     0.599120000000     0.821680000000    -0.37462    
O118     O      0.497510000000     0.599130000000     0.174150000000    -0.374574   
O119     O      0.674150000000     0.499020000000     0.896710000000    -0.374567   
O120     O      0.321670000000     0.496800000000     0.896720000000    -0.374543   
O121     O      0.321680000000     0.499030000000     0.099130000000    -0.373686   
O122     O      0.674160000000     0.496810000000     0.099120000000    -0.373729   
O123     O      0.599120000000     0.674140000000     0.996560000000    -0.374742   
O124     O      0.396700000000     0.674140000000     0.999270000000    -0.374845   
O125     O      0.435040000000     0.560800000000     0.060800000000    -0.505772   
O126     O      0.560790000000     0.560800000000     0.935030000000    -0.506899   
O127     O      0.434830000000     0.560970000000     0.934860000000    -0.653152   
O128     O      0.561000000000     0.560970000000     0.060970000000    -0.651962   
Zr1      Zr     0.997920000000     0.997910000000     0.123140000000     1.42447    
Zr2      Zr     0.997920000000     0.872690000000     0.997920000000     1.4239     
Zr3      Zr     0.997920000000     0.123140000000     0.997920000000     1.42424    
Zr4      Zr     0.872700000000     0.997910000000     0.997920000000     1.42432    
Zr5      Zr     0.123130000000     0.997910000000     0.997920000000     1.42457    
Zr6      Zr     0.997920000000     0.997910000000     0.872700000000     1.42435    
Zr7      Zr     0.997920000000     0.497910000000     0.372690000000     1.42693    
Zr8      Zr     0.997920000000     0.623130000000     0.497920000000     1.42697    
Zr9      Zr     0.997920000000     0.372700000000     0.497920000000     1.42691    
Zr10     Zr     0.872700000000     0.497910000000     0.497910000000     1.42958    
Zr11     Zr     0.123130000000     0.497910000000     0.497920000000     1.42977    
Zr12     Zr     0.997910000000     0.497910000000     0.623140000000     1.42695    
Zr13     Zr     0.497910000000     0.997920000000     0.372700000000     1.4273     
Zr14     Zr     0.372700000000     0.997910000000     0.497920000000     1.42729    
Zr15     Zr     0.623130000000     0.997910000000     0.497920000000     1.42722    
Zr16     Zr     0.497910000000     0.872700000000     0.497910000000     1.42969    
Zr17     Zr     0.497910000000     0.123130000000     0.497920000000     1.42997    
Zr18     Zr     0.497910000000     0.997910000000     0.623140000000     1.42723    
Zr19     Zr     0.497910000000     0.372700000000     0.997920000000     1.42701    
Zr20     Zr     0.623140000000     0.497910000000     0.997910000000     1.42692    
Zr21     Zr     0.372690000000     0.497910000000     0.997920000000     1.427      
Zr22     Zr     0.497910000000     0.497910000000     0.872700000000     1.4296     
Zr23     Zr     0.497920000000     0.497920000000     0.123140000000     1.42981    
Zr24     Zr     0.497910000000     0.623130000000     0.997920000000     1.42692    


