data_structure

_audit_creation_method RASPA-1.0
_audit_creation_date 2023-5-19
_audit_author_name 'Poobodin Mano'

_cell_length_a    21.5505
_cell_length_b    21.5494
_cell_length_c    21.5704
_cell_angle_alpha 90
_cell_angle_beta  90
_cell_angle_gamma 90
_cell_volume      10017.3

_symmetry_cell_setting          triclinic
_symmetry_space_group_name_Hall 'P 1'
_symmetry_space_group_name_H-M  'P 1'
_symmetry_Int_Tables_number     1

_symmetry_equiv_pos_as_xyz 'x,y,z'

loop_
_atom_site_label
_atom_site_type_symbol
_atom_site_fract_x
_atom_site_fract_y
_atom_site_fract_z
_atom_site_charge
C1       C      0.969290000000     0.129490000000     0.133710000000     0.395277   
C2       C      0.972360000000     0.811060000000     0.127360000000     0.394164   
C3       C      0.812950000000     0.970060000000     0.130110000000     0.395569   
C4       C      0.131740000000     0.967020000000     0.130650000000     0.396309   
C5       C      0.971670000000     0.819090000000     0.809660000000     0.396271   
C6       C      0.977770000000     0.135890000000     0.818000000000     0.397584   
C7       C      0.813700000000     0.815700000000     0.967550000000     0.395263   
C8       C      0.131100000000     0.814320000000     0.972030000000     0.394827   
C9       C      0.131180000000     0.132380000000     0.972140000000     0.396236   
C10      C      0.815690000000     0.133020000000     0.979120000000     0.398224   
C11      C      0.814300000000     0.977640000000     0.813960000000     0.394903   
C12      C      0.132390000000     0.972700000000     0.814720000000     0.393357   
C13      C      0.963820000000     0.311550000000     0.317400000000     0.396253   
C14      C      0.971300000000     0.629620000000     0.311960000000     0.39501    
C15      C      0.810020000000     0.471870000000     0.318130000000     0.395691   
C16      C      0.128640000000     0.471510000000     0.311440000000     0.395065   
C17      C      0.975440000000     0.633600000000     0.629030000000     0.396063   
C18      C      0.974630000000     0.316880000000     0.633360000000     0.396572   
C19      C      0.820230000000     0.637910000000     0.476080000000     0.397529   
C20      C      0.135220000000     0.627200000000     0.468620000000     0.396493   
C21      C      0.126780000000     0.310350000000     0.473570000000     0.396336   
C22      C      0.810040000000     0.319060000000     0.475760000000     0.395313   
C23      C      0.817020000000     0.477160000000     0.634070000000     0.39579    
C24      C      0.133840000000     0.469570000000     0.628520000000     0.39537    
C25      C      0.631170000000     0.976090000000     0.314160000000     0.395601   
C26      C      0.313150000000     0.969860000000     0.315030000000     0.394947   
C27      C      0.478980000000     0.818180000000     0.310460000000     0.397617   
C28      C      0.467170000000     0.133610000000     0.316670000000     0.394894   
C29      C      0.314120000000     0.962960000000     0.630940000000     0.396072   
C30      C      0.632480000000     0.980020000000     0.629890000000     0.397109   
C31      C      0.320230000000     0.808050000000     0.471710000000     0.398327   
C32      C      0.307560000000     0.125060000000     0.474800000000     0.397144   
C33      C      0.624900000000     0.137870000000     0.475260000000     0.396069   
C34      C      0.636470000000     0.819780000000     0.470540000000     0.395413   
C35      C      0.479190000000     0.811280000000     0.628000000000     0.395032   
C36      C      0.467310000000     0.128360000000     0.634980000000     0.395853   
C37      C      0.315070000000     0.314100000000     0.967800000000     0.397899   
C38      C      0.630740000000     0.313890000000     0.978770000000     0.396605   
C39      C      0.472290000000     0.313130000000     0.816250000000     0.39464    
C40      C      0.471130000000     0.318030000000     0.135100000000     0.397517   
C41      C      0.633010000000     0.630440000000     0.968880000000     0.397815   
C42      C      0.316060000000     0.633010000000     0.972490000000     0.396871   
C43      C      0.636130000000     0.470090000000     0.818390000000     0.397815   
C44      C      0.628600000000     0.469170000000     0.133950000000     0.397731   
C45      C      0.309970000000     0.477510000000     0.126780000000     0.395802   
C46      C      0.318810000000     0.469170000000     0.809420000000     0.397332   
C47      C      0.481730000000     0.630320000000     0.812550000000     0.397674   
C48      C      0.472970000000     0.633960000000     0.129200000000     0.395968   
C49      C      0.464890000000     0.165760000000     0.210790000000     0.0303791  
C50      C      0.472550000000     0.240650000000     0.289610000000     0.017948   
C51      C      0.466380000000     0.212520000000     0.166090000000     0.0278112  
C52      C      0.475320000000     0.288210000000     0.245150000000     0.0634825  
C53      C      0.470800000000     0.666130000000     0.234970000000     0.0298082  
C54      C      0.482420000000     0.740730000000     0.156280000000     0.0178394  
C55      C      0.473170000000     0.712800000000     0.279630000000     0.027385   
C56      C      0.486060000000     0.788150000000     0.200780000000     0.0637931  
C57      C      0.475210000000     0.704960000000     0.659700000000     0.0298704  
C58      C      0.492480000000     0.783140000000     0.733750000000     0.0182424  
C59      C      0.476390000000     0.660240000000     0.706650000000     0.0276799  
C60      C      0.495680000000     0.738650000000     0.781070000000     0.0635336  
C61      C      0.474050000000     0.280800000000     0.710360000000     0.0300752  
C62      C      0.463290000000     0.206240000000     0.789120000000     0.0182314  
C63      C      0.472260000000     0.233960000000     0.665730000000     0.0280775  
C64      C      0.460000000000     0.158670000000     0.744670000000     0.0638756  
C65      C      0.777350000000     0.213340000000     0.477670000000     0.0299599  
C66      C      0.702570000000     0.292580000000     0.473640000000     0.01823    
C67      C      0.730400000000     0.168880000000     0.477520000000     0.0276058  
C68      C      0.654650000000     0.248280000000     0.472950000000     0.0636087  
C69      C      0.668940000000     0.714280000000     0.465810000000     0.0298333  
C70      C      0.743300000000     0.792590000000     0.481330000000     0.0181633  
C71      C      0.715370000000     0.669450000000     0.468030000000     0.0276468  
C72      C      0.790530000000     0.747680000000     0.485180000000     0.0635404  
C73      C      0.232280000000     0.277420000000     0.471210000000     0.0301019  
C74      C      0.153010000000     0.202860000000     0.478100000000     0.0191158  
C75      C      0.276640000000     0.230470000000     0.471710000000     0.0277996  
C76      C      0.197270000000     0.154910000000     0.479150000000     0.0626062  
C77      C      0.167860000000     0.732840000000     0.467870000000     0.0303628  
C78      C      0.242600000000     0.653500000000     0.471470000000     0.0181178  
C79      C      0.214770000000     0.777230000000     0.469070000000     0.0278858  
C80      C      0.290480000000     0.697720000000     0.473220000000     0.0636774  
C81      C      0.703680000000     0.477690000000     0.286530000000     0.0297573  
C82      C      0.781340000000     0.457340000000     0.212760000000     0.018797   
C83      C      0.658770000000     0.476300000000     0.239720000000     0.0276642  
C84      C      0.736720000000     0.454100000000     0.165620000000     0.0632742  
C85      C      0.234500000000     0.469080000000     0.278940000000     0.029835   
C86      C      0.155670000000     0.481260000000     0.204650000000     0.0180933  
C87      C      0.279120000000     0.471250000000     0.232150000000     0.0274546  
C88      C      0.200170000000     0.484780000000     0.157100000000     0.0632016  
C89      C      0.166440000000     0.474480000000     0.734080000000     0.0296846  
C90      C      0.240720000000     0.460360000000     0.655570000000     0.0182047  
C91      C      0.213340000000     0.474090000000     0.778570000000     0.0275357  
C92      C      0.288430000000     0.458740000000     0.699970000000     0.0634587  
C93      C      0.711510000000     0.482140000000     0.666760000000     0.0300141  
C94      C      0.790030000000     0.465000000000     0.740510000000     0.0181771  
C95      C      0.666940000000     0.479590000000     0.713450000000     0.0283244  
C96      C      0.745470000000     0.460600000000     0.787840000000     0.0636446  
C97      C      0.707660000000     0.783460000000     0.971610000000     0.0295526  
C98      C      0.786400000000     0.709010000000     0.959280000000     0.0187955  
C99      C      0.663170000000     0.736350000000     0.971700000000     0.0275727  
C100     C      0.742180000000     0.661240000000     0.958130000000     0.0622244  
C101     C      0.662830000000     0.207830000000     0.976320000000     0.0301783  
C102     C      0.737440000000     0.286740000000     0.986360000000     0.0191211  
C103     C      0.709850000000     0.163300000000     0.976700000000     0.0277318  
C104     C      0.785120000000     0.242500000000     0.988340000000     0.0611966  
C105     C      0.163330000000     0.708270000000     0.967280000000     0.0295592  
C106     C      0.237750000000     0.786820000000     0.980770000000     0.018496   
C107     C      0.210320000000     0.663630000000     0.967720000000     0.0273195  
C108     C      0.285370000000     0.742420000000     0.982750000000     0.0630914  
C109     C      0.162810000000     0.238580000000     0.975590000000     0.0298848  
C110     C      0.237310000000     0.160360000000     0.960230000000     0.0182572  
C111     C      0.209450000000     0.283510000000     0.973690000000     0.0277141  
C112     C      0.284470000000     0.205080000000     0.956650000000     0.0639432  
C113     C      0.708220000000     0.973080000000     0.782090000000     0.0297528  
C114     C      0.786380000000     0.988930000000     0.707770000000     0.0182407  
C115     C      0.663370000000     0.974230000000     0.735380000000     0.0273229  
C116     C      0.741720000000     0.991780000000     0.660480000000     0.0616282  
C117     C      0.238640000000     0.974760000000     0.782990000000     0.0300327  
C118     C      0.160350000000     0.957960000000     0.708990000000     0.0178593  
C119     C      0.283570000000     0.971330000000     0.736410000000     0.0274123  
C120     C      0.205090000000     0.952370000000     0.662010000000     0.0635173  
C121     C      0.206930000000     0.972270000000     0.283240000000     0.0298816  
C122     C      0.285530000000     0.960150000000     0.208680000000     0.0180998  
C123     C      0.162170000000     0.971020000000     0.236400000000     0.0277393  
C124     C      0.241020000000     0.957020000000     0.161290000000     0.0634621  
C125     C      0.737290000000     0.979590000000     0.282200000000     0.0297538  
C126     C      0.658900000000     0.964890000000     0.207890000000     0.0182016  
C127     C      0.782160000000     0.977330000000     0.235530000000     0.0278513  
C128     C      0.703560000000     0.960820000000     0.160670000000     0.0637646  
C129     C      0.970780000000     0.211130000000     0.665810000000     0.0298412  
C130     C      0.984780000000     0.289810000000     0.740000000000     0.0190376  
C131     C      0.972100000000     0.166590000000     0.712650000000     0.0276487  
C132     C      0.987330000000     0.245390000000     0.787600000000     0.0611097  
C133     C      0.973530000000     0.666300000000     0.734720000000     0.029716   
C134     C      0.973950000000     0.741000000000     0.655380000000     0.018122   
C135     C      0.972320000000     0.713380000000     0.779050000000     0.0271272  
C136     C      0.972580000000     0.789000000000     0.699440000000     0.0632279  
C137     C      0.976860000000     0.704610000000     0.159040000000     0.0298534  
C138     C      0.962980000000     0.782970000000     0.233540000000     0.0184362  
C139     C      0.976140000000     0.659820000000     0.206030000000     0.0278851  
C140     C      0.960580000000     0.738550000000     0.280960000000     0.0625521  
C141     C      0.971390000000     0.235500000000     0.165580000000     0.0296572  
C142     C      0.957520000000     0.157130000000     0.240080000000     0.0180217  
C143     C      0.969350000000     0.280380000000     0.212100000000     0.027224   
C144     C      0.953900000000     0.201920000000     0.287320000000     0.0632721  
H1       H      0.883790000000     0.883050000000     0.058630000000     0.210538   
H2       H      0.062200000000     0.060190000000     0.063800000000     0.211826   
H3       H      0.884730000000     0.065130000000     0.885660000000     0.212524   
H4       H      0.061470000000     0.886180000000     0.882240000000     0.212934   
H5       H      0.884470000000     0.563150000000     0.384450000000     0.211857   
H6       H      0.057330000000     0.380640000000     0.383440000000     0.210929   
H7       H      0.883050000000     0.388160000000     0.564250000000     0.211333   
H8       H      0.065660000000     0.560520000000     0.558910000000     0.212385   
H9       H      0.386920000000     0.882180000000     0.382410000000     0.21394    
H10      H      0.557730000000     0.066510000000     0.385280000000     0.211984   
H11      H      0.565050000000     0.886130000000     0.559400000000     0.211815   
H12      H      0.380740000000     0.056300000000     0.563230000000     0.212861   
H13      H      0.563300000000     0.382430000000     0.886990000000     0.212588   
H14      H      0.381860000000     0.386200000000     0.060600000000     0.211163   
H15      H      0.386970000000     0.561680000000     0.880580000000     0.210637   
H16      H      0.561300000000     0.562630000000     0.062360000000     0.213483   
H17      H      0.463050000000     0.197810000000     0.118140000000     0.0388197  
H18      H      0.460960000000     0.118240000000     0.194720000000     0.037959   
H19      H      0.475890000000     0.253120000000     0.338340000000     0.0421883  
H20      H      0.468360000000     0.698230000000     0.327510000000     0.0376403  
H21      H      0.464980000000     0.618790000000     0.250980000000     0.0365728  
H22      H      0.487130000000     0.753060000000     0.107630000000     0.0426464  
H23      H      0.468670000000     0.612500000000     0.692750000000     0.0373382  
H24      H      0.467240000000     0.689380000000     0.612570000000     0.037357   
H25      H      0.500520000000     0.831470000000     0.745810000000     0.041531   
H26      H      0.476880000000     0.248490000000     0.617820000000     0.03862    
H27      H      0.479320000000     0.328180000000     0.694270000000     0.0372786  
H28      H      0.458950000000     0.193900000000     0.837770000000     0.0431303  
H29      H      0.745250000000     0.120850000000     0.479500000000     0.0386455  
H30      H      0.824890000000     0.196950000000     0.479490000000     0.0371416  
H31      H      0.690180000000     0.341450000000     0.471730000000     0.0422673  
H32      H      0.700770000000     0.621750000000     0.461380000000     0.0364164  
H33      H      0.621790000000     0.698410000000     0.458290000000     0.036903   
H34      H      0.755450000000     0.841100000000     0.487920000000     0.0425109  
H35      H      0.324630000000     0.245250000000     0.468620000000     0.0379622  
H36      H      0.248730000000     0.324880000000     0.468090000000     0.0362021  
H37      H      0.104150000000     0.190630000000     0.481080000000     0.0433194  
H38      H      0.199940000000     0.825300000000     0.467700000000     0.038904   
H39      H      0.120330000000     0.749270000000     0.465920000000     0.0381762  
H40      H      0.254950000000     0.604600000000     0.472860000000     0.0419173  
H41      H      0.611180000000     0.485050000000     0.253500000000     0.0371061  
H42      H      0.688340000000     0.486820000000     0.333530000000     0.0354139  
H43      H      0.829480000000     0.448210000000     0.200730000000     0.0427922  
H44      H      0.327050000000     0.466170000000     0.246620000000     0.0377558  
H45      H      0.250600000000     0.463070000000     0.326190000000     0.036207   
H46      H      0.106990000000     0.486360000000     0.192460000000     0.0419067  
H47      H      0.198870000000     0.480440000000     0.826300000000     0.0368971  
H48      H      0.119150000000     0.480680000000     0.750100000000     0.0362397  
H49      H      0.252850000000     0.453960000000     0.607060000000     0.0420897  
H50      H      0.619200000000     0.486810000000     0.699300000000     0.0381584  
H51      H      0.695590000000     0.490450000000     0.619800000000     0.0367549  
H52      H      0.838530000000     0.457850000000     0.752390000000     0.0417816  
H53      H      0.615280000000     0.750640000000     0.977510000000     0.0376     
H54      H      0.691650000000     0.830870000000     0.976930000000     0.0366634  
H55      H      0.834970000000     0.696750000000     0.953260000000     0.0419473  
H56      H      0.695400000000     0.115320000000     0.972060000000     0.0385369  
H57      H      0.615370000000     0.191760000000     0.971760000000     0.036722   
H58      H      0.749810000000     0.335440000000     0.990730000000     0.0432916  
H59      H      0.195960000000     0.615790000000     0.961670000000     0.0369186  
H60      H      0.115970000000     0.692380000000     0.961330000000     0.0359029  
H61      H      0.250030000000     0.835360000000     0.986860000000     0.0432424  
H62      H      0.195180000000     0.331310000000     0.980290000000     0.0373069  
H63      H      0.115530000000     0.254230000000     0.982780000000     0.0370487  
H64      H      0.249620000000     0.111900000000     0.953450000000     0.0431008  
H65      H      0.615650000000     0.967330000000     0.749750000000     0.0374112  
H66      H      0.692550000000     0.965810000000     0.829310000000     0.0367326  
H67      H      0.834820000000     0.995920000000     0.695540000000     0.0412299  
H68      H      0.331390000000     0.978080000000     0.750520000000     0.0378659  
H69      H      0.254290000000     0.983290000000     0.830000000000     0.0367019  
H70      H      0.111850000000     0.951020000000     0.696920000000     0.0430129  
H71      H      0.114260000000     0.976450000000     0.250760000000     0.0373456  
H72      H      0.191100000000     0.978110000000     0.330600000000     0.0377008  
H73      H      0.334140000000     0.954470000000     0.196360000000     0.0428636  
H74      H      0.830000000000     0.983540000000     0.249820000000     0.0369713  
H75      H      0.753060000000     0.986730000000     0.329400000000     0.0363769  
H76      H      0.610370000000     0.958740000000     0.195620000000     0.0435114  
H77      H      0.966010000000     0.118760000000     0.698260000000     0.0375163  
H78      H      0.964330000000     0.195100000000     0.618600000000     0.0364673  
H79      H      0.990860000000     0.338400000000     0.752130000000     0.0417561  
H80      H      0.971710000000     0.698660000000     0.827110000000     0.0369353  
H81      H      0.973740000000     0.618750000000     0.751150000000     0.0361592  
H82      H      0.974510000000     0.753350000000     0.606520000000     0.0431839  
H83      H      0.982530000000     0.611950000000     0.191930000000     0.0372791  
H84      H      0.983150000000     0.688930000000     0.111690000000     0.0367535  
H85      H      0.956420000000     0.831430000000     0.245950000000     0.0419109  
H86      H      0.975060000000     0.328180000000     0.197480000000     0.0366334  
H87      H      0.978030000000     0.251320000000     0.118320000000     0.0370505  
H88      H      0.951590000000     0.108570000000     0.252380000000     0.0417325  
N1       N      0.467720000000     0.179730000000     0.272550000000    -0.172815   
N2       N      0.471140000000     0.274100000000     0.182200000000    -0.176373   
N3       N      0.474940000000     0.680020000000     0.173280000000    -0.173161   
N4       N      0.479890000000     0.774190000000     0.263530000000    -0.176905   
N5       N      0.481980000000     0.766520000000     0.673410000000    -0.172736   
N6       N      0.485030000000     0.676370000000     0.767780000000    -0.176709   
N7       N      0.470210000000     0.267010000000     0.772110000000    -0.172318   
N8       N      0.466160000000     0.172490000000     0.681870000000    -0.176299   
N9       N      0.763600000000     0.275210000000     0.475810000000    -0.172773   
N10      N      0.668690000000     0.185190000000     0.475280000000    -0.176324   
N11      N      0.682770000000     0.775880000000     0.472010000000    -0.172926   
N12      N      0.776550000000     0.685140000000     0.476860000000    -0.176863   
N13      N      0.170450000000     0.263800000000     0.474180000000    -0.173119   
N14      N      0.260290000000     0.168840000000     0.475330000000    -0.176254   
N15      N      0.181620000000     0.670980000000     0.469010000000    -0.173247   
N16      N      0.276440000000     0.760820000000     0.471490000000    -0.176863   
N17      N      0.765080000000     0.469380000000     0.272870000000    -0.172876   
N18      N      0.674610000000     0.466100000000     0.178790000000    -0.176524   
N19      N      0.172730000000     0.473520000000     0.265280000000    -0.172729   
N20      N      0.262980000000     0.478230000000     0.170830000000    -0.176236   
N21      N      0.180050000000     0.468300000000     0.672520000000    -0.172903   
N22      N      0.274740000000     0.467110000000     0.762520000000    -0.176682   
N23      N      0.773080000000     0.475370000000     0.680240000000    -0.173182   
N24      N      0.682970000000     0.469670000000     0.774370000000    -0.177037   
N25      N      0.769340000000     0.769780000000     0.966240000000    -0.172974   
N26      N      0.679520000000     0.674860000000     0.966050000000    -0.176438   
N27      N      0.676630000000     0.269580000000     0.980360000000    -0.173347   
N28      N      0.771370000000     0.179660000000     0.981700000000    -0.17633    
N29      N      0.177040000000     0.769930000000     0.973100000000    -0.172615   
N30      N      0.271740000000     0.679740000000     0.974520000000    -0.176341   
N31      N      0.176810000000     0.176950000000     0.969790000000    -0.172825   
N32      N      0.270700000000     0.267570000000     0.965600000000    -0.176991   
N33      N      0.769790000000     0.979570000000     0.768260000000    -0.173013   
N34      N      0.679200000000     0.982450000000     0.674140000000    -0.176389   
N35      N      0.176980000000     0.969120000000     0.769180000000    -0.172484   
N36      N      0.267630000000     0.961520000000     0.675430000000    -0.176422   
N37      N      0.268660000000     0.967820000000     0.269320000000    -0.172743   
N38      N      0.178320000000     0.964630000000     0.175030000000    -0.176462   
N39      N      0.675620000000     0.974050000000     0.268380000000    -0.172655   
N40      N      0.766200000000     0.968980000000     0.174360000000    -0.176503   
N41      N      0.976470000000     0.272790000000     0.679430000000    -0.173329   
N42      N      0.979410000000     0.182740000000     0.773930000000    -0.176445   
N43      N      0.974450000000     0.679970000000     0.672880000000    -0.173013   
N44      N      0.972020000000     0.775090000000     0.762570000000    -0.176407   
N45      N      0.971100000000     0.766250000000     0.172860000000    -0.172508   
N46      N      0.969120000000     0.675980000000     0.267360000000    -0.176414   
N47      N      0.966440000000     0.173810000000     0.179550000000    -0.172832   
N48      N      0.961870000000     0.264560000000     0.273420000000    -0.176629   
O1       O      0.972040000000     0.147940000000     0.076690000000    -0.373711   
O2       O      0.973560000000     0.793900000000     0.069740000000    -0.370231   
O3       O      0.870350000000     0.969520000000     0.148470000000    -0.370284   
O4       O      0.074250000000     0.967150000000     0.148790000000    -0.370088   
O5       O      0.147460000000     0.970540000000     0.073060000000    -0.373973   
O6       O      0.797490000000     0.972650000000     0.072420000000    -0.372157   
O7       O      0.971580000000     0.868520000000     0.144870000000    -0.375763   
O8       O      0.968880000000     0.071550000000     0.149930000000    -0.373838   
O9       O      0.035030000000     0.909560000000     0.033830000000    -0.502918   
O10      O      0.910200000000     0.034880000000     0.036330000000    -0.504313   
O11      O      0.909870000000     0.909450000000     0.033540000000    -0.647252   
O12      O      0.036290000000     0.034860000000     0.037460000000    -0.651476   
O13      O      0.972300000000     0.800010000000     0.866750000000    -0.371992   
O14      O      0.975360000000     0.150770000000     0.875910000000    -0.372375   
O15      O      0.795800000000     0.873070000000     0.969860000000    -0.371992   
O16      O      0.147730000000     0.872060000000     0.973450000000    -0.37359    
O17      O      0.147900000000     0.074640000000     0.970720000000    -0.373143   
O18      O      0.797310000000     0.075700000000     0.977070000000    -0.369743   
O19      O      0.872060000000     0.978910000000     0.797300000000    -0.375029   
O20      O      0.074690000000     0.973510000000     0.797800000000    -0.372146   
O21      O      0.796310000000     0.975210000000     0.871180000000    -0.374828   
O22      O      0.150160000000     0.973700000000     0.872090000000    -0.37266    
O23      O      0.871370000000     0.798890000000     0.966780000000    -0.376259   
O24      O      0.873430000000     0.148450000000     0.977670000000    -0.374675   
O25      O      0.073950000000     0.150270000000     0.975190000000    -0.37367    
O26      O      0.073790000000     0.796310000000     0.969730000000    -0.373028   
O27      O      0.971380000000     0.877130000000     0.795100000000    -0.372542   
O28      O      0.977350000000     0.078780000000     0.799070000000    -0.37287    
O29      O      0.036330000000     0.037810000000     0.910950000000    -0.509122   
O30      O      0.910320000000     0.912160000000     0.908270000000    -0.504963   
O31      O      0.910290000000     0.038370000000     0.910900000000    -0.654092   
O32      O      0.035620000000     0.911710000000     0.908420000000    -0.653915   
O33      O      0.965440000000     0.296590000000     0.375280000000    -0.373963   
O34      O      0.975790000000     0.645620000000     0.369430000000    -0.372664   
O35      O      0.867470000000     0.469400000000     0.300670000000    -0.374157   
O36      O      0.070700000000     0.472310000000     0.295380000000    -0.373993   
O37      O      0.147260000000     0.469450000000     0.368520000000    -0.373506   
O38      O      0.792900000000     0.476260000000     0.375550000000    -0.373573   
O39      O      0.969230000000     0.572070000000     0.294270000000    -0.371415   
O40      O      0.965740000000     0.368750000000     0.298520000000    -0.372412   
O41      O      0.036160000000     0.532920000000     0.407700000000    -0.507259   
O42      O      0.907060000000     0.411870000000     0.412510000000    -0.505598   
O43      O      0.910210000000     0.536850000000     0.409980000000    -0.653249   
O44      O      0.032640000000     0.407550000000     0.409380000000    -0.651261   
O45      O      0.976420000000     0.649520000000     0.571150000000    -0.373861   
O46      O      0.970950000000     0.298450000000     0.576330000000    -0.374538   
O47      O      0.800760000000     0.580910000000     0.476780000000    -0.3733     
O48      O      0.150930000000     0.569190000000     0.469100000000    -0.375285   
O49      O      0.145950000000     0.367240000000     0.471330000000    -0.375678   
O50      O      0.794320000000     0.377100000000     0.475380000000    -0.373204   
O51      O      0.874910000000     0.475250000000     0.650040000000    -0.375257   
O52      O      0.076810000000     0.473180000000     0.647140000000    -0.37323    
O53      O      0.798250000000     0.479280000000     0.577040000000    -0.373977   
O54      O      0.149830000000     0.467340000000     0.570660000000    -0.373075   
O55      O      0.878250000000     0.652290000000     0.473020000000    -0.372428   
O56      O      0.867060000000     0.300080000000     0.476100000000    -0.373662   
O57      O      0.068720000000     0.294890000000     0.475160000000    -0.372339   
O58      O      0.078230000000     0.646190000000     0.468710000000    -0.374298   
O59      O      0.975140000000     0.576490000000     0.647720000000    -0.374842   
O60      O      0.976770000000     0.374690000000     0.649500000000    -0.375178   
O61      O      0.035000000000     0.409680000000     0.535420000000    -0.507368   
O62      O      0.912710000000     0.538540000000     0.535920000000    -0.508277   
O63      O      0.908920000000     0.413310000000     0.537710000000    -0.652807   
O64      O      0.038870000000     0.534890000000     0.533790000000    -0.655686   
O65      O      0.649230000000     0.978210000000     0.371360000000    -0.374953   
O66      O      0.295350000000     0.969210000000     0.372370000000    -0.37302    
O67      O      0.475460000000     0.876020000000     0.295570000000    -0.37333    
O68      O      0.468300000000     0.076500000000     0.298090000000    -0.374653   
O69      O      0.466730000000     0.149740000000     0.374590000000    -0.372985   
O70      O      0.479920000000     0.799270000000     0.367590000000    -0.371241   
O71      O      0.370820000000     0.971620000000     0.298200000000    -0.374333   
O72      O      0.573370000000     0.975040000000     0.297610000000    -0.373267   
O73      O      0.407180000000     0.034830000000     0.411210000000    -0.508018   
O74      O      0.537430000000     0.913490000000     0.408530000000    -0.508506   
O75      O      0.411940000000     0.908480000000     0.408630000000    -0.657069   
O76      O      0.532790000000     0.039520000000     0.410900000000    -0.654239   
O77      O      0.298240000000     0.964760000000     0.573320000000    -0.373809   
O78      O      0.647910000000     0.979740000000     0.572180000000    -0.375412   
O79      O      0.378340000000     0.793800000000     0.470310000000    -0.37457    
O80      O      0.364470000000     0.144620000000     0.475330000000    -0.374309   
O81      O      0.566730000000     0.152040000000     0.476920000000    -0.37217    
O82      O      0.579630000000     0.800550000000     0.468710000000    -0.376202   
O83      O      0.478560000000     0.868720000000     0.645510000000    -0.377438   
O84      O      0.470330000000     0.070460000000     0.649900000000    -0.372291   
O85      O      0.477840000000     0.794030000000     0.570420000000    -0.370424   
O86      O      0.466350000000     0.147160000000     0.577800000000    -0.371294   
O87      O      0.300810000000     0.865000000000     0.472560000000    -0.373476   
O88      O      0.651940000000     0.877920000000     0.472200000000    -0.371791   
O89      O      0.644370000000     0.080920000000     0.473440000000    -0.37143    
O90      O      0.293440000000     0.066870000000     0.473510000000    -0.370202   
O91      O      0.371620000000     0.964700000000     0.648960000000    -0.369981   
O92      O      0.575160000000     0.976650000000     0.648240000000    -0.369573   
O93      O      0.533260000000     0.036770000000     0.536220000000    -0.504714   
O94      O      0.412600000000     0.906620000000     0.534360000000    -0.506648   
O95      O      0.538070000000     0.911290000000     0.534000000000    -0.652874   
O96      O      0.407560000000     0.031980000000     0.536870000000    -0.653133   
O97      O      0.296980000000     0.371590000000     0.966770000000    -0.369969   
O98      O      0.647410000000     0.371580000000     0.978810000000    -0.375682   
O99      O      0.471360000000     0.296970000000     0.874150000000    -0.37064    
O100     O      0.472550000000     0.299170000000     0.077910000000    -0.369309   
O101     O      0.468830000000     0.375900000000     0.149910000000    -0.37534    
O102     O      0.474870000000     0.370240000000     0.797700000000    -0.371863   
O103     O      0.573430000000     0.295890000000     0.977020000000    -0.375491   
O104     O      0.372550000000     0.298270000000     0.972380000000    -0.376773   
O105     O      0.534020000000     0.411340000000     0.038280000000    -0.509433   
O106     O      0.412560000000     0.410150000000     0.909630000000    -0.505318   
O107     O      0.536970000000     0.408850000000     0.911790000000    -0.656322   
O108     O      0.408430000000     0.411690000000     0.035080000000    -0.648      
O109     O      0.648450000000     0.572720000000     0.972700000000    -0.373031   
O110     O      0.297620000000     0.575650000000     0.970880000000    -0.371009   
O111     O      0.579060000000     0.470180000000     0.799360000000    -0.374057   
O112     O      0.570910000000     0.471060000000     0.151310000000    -0.36796    
O113     O      0.367120000000     0.478120000000     0.145780000000    -0.370957   
O114     O      0.376810000000     0.470540000000     0.794620000000    -0.374456   
O115     O      0.477750000000     0.646670000000     0.869960000000    -0.373007   
O116     O      0.474660000000     0.650050000000     0.071360000000    -0.374448   
O117     O      0.481230000000     0.572740000000     0.794930000000    -0.371314   
O118     O      0.470590000000     0.576890000000     0.147760000000    -0.376702   
O119     O      0.650950000000     0.471600000000     0.876340000000    -0.372201   
O120     O      0.299780000000     0.470700000000     0.866470000000    -0.373776   
O121     O      0.295170000000     0.474740000000     0.068840000000    -0.371741   
O122     O      0.645210000000     0.471410000000     0.076590000000    -0.374129   
O123     O      0.575680000000     0.648740000000     0.968540000000    -0.371268   
O124     O      0.373890000000     0.648380000000     0.971450000000    -0.373929   
O125     O      0.409240000000     0.536820000000     0.032660000000    -0.505956   
O126     O      0.537850000000     0.534950000000     0.910210000000    -0.512535   
O127     O      0.412040000000     0.535790000000     0.907190000000    -0.650675   
O128     O      0.535340000000     0.536740000000     0.036610000000    -0.657711   
S1       S      0.486850000000     0.356410000000     0.271730000000    -0.0052818  
S2       S      0.501590000000     0.855780000000     0.174820000000    -0.00623977 
S3       S      0.517320000000     0.763510000000     0.847410000000    -0.00258517 
S4       S      0.444940000000     0.090990000000     0.770760000000    -0.0071471  
S5       S      0.585870000000     0.275260000000     0.467490000000    -0.00840121 
S6       S      0.857570000000     0.772530000000     0.504510000000    -0.00265955 
S7       S      0.170450000000     0.086300000000     0.486960000000    -0.001459   
S8       S      0.359200000000     0.670630000000     0.479020000000    -0.00771664 
S9       S      0.761270000000     0.430950000000     0.099670000000    -0.00131846 
S10      S      0.174180000000     0.500630000000     0.089620000000    -0.00513655 
S11      S      0.356150000000     0.443290000000     0.674200000000    -0.00605467 
S12      S      0.770620000000     0.439760000000     0.854280000000    -0.00566359 
S13      S      0.768260000000     0.593480000000     0.943350000000     0.000593305
S14      S      0.853030000000     0.269060000000     0.001690000000     0.000959005
S15      S      0.352940000000     0.768430000000     0.998650000000    -0.00271572 
S16      S      0.351310000000     0.179990000000     0.936760000000    -0.00558487 
S17      S      0.767200000000     0.009980000000     0.593360000000    -0.00359075 
S18      S      0.179920000000     0.930220000000     0.595970000000    -0.00314744 
S19      S      0.266860000000     0.939880000000     0.094040000000    -0.00384927 
S20      S      0.678060000000     0.941700000000     0.093820000000    -0.00678796 
S21      S      0.003590000000     0.271170000000     0.855070000000     0.000449632
S22      S      0.971750000000     0.857820000000     0.672000000000    -0.00644482 
S23      S      0.942530000000     0.764210000000     0.348060000000    -0.00388067 
S24      S      0.936320000000     0.176500000000     0.354600000000    -0.00544463 
Zr1      Zr     0.972390000000     0.970960000000     0.097780000000     1.42003    
Zr2      Zr     0.972890000000     0.848040000000     0.969730000000     1.42255    
Zr3      Zr     0.973810000000     0.097990000000     0.975520000000     1.4339     
Zr4      Zr     0.847820000000     0.973930000000     0.971870000000     1.42569    
Zr5      Zr     0.097540000000     0.973320000000     0.972370000000     1.42989    
Zr6      Zr     0.973230000000     0.976610000000     0.847910000000     1.42823    
Zr7      Zr     0.970220000000     0.471360000000     0.347480000000     1.42321    
Zr8      Zr     0.976460000000     0.597200000000     0.471060000000     1.43578    
Zr9      Zr     0.969180000000     0.348690000000     0.474970000000     1.4318     
Zr10     Zr     0.847200000000     0.477250000000     0.475060000000     1.42818    
Zr11     Zr     0.097710000000     0.469440000000     0.470310000000     1.43099    
Zr12     Zr     0.975040000000     0.474980000000     0.597710000000     1.43026    
Zr13     Zr     0.472130000000     0.975340000000     0.348230000000     1.43333    
Zr14     Zr     0.348020000000     0.968010000000     0.472540000000     1.43361    
Zr15     Zr     0.597460000000     0.977550000000     0.471880000000     1.4306     
Zr16     Zr     0.477280000000     0.847750000000     0.470300000000     1.43219    
Zr17     Zr     0.467670000000     0.097930000000     0.475360000000     1.43005    
Zr18     Zr     0.473240000000     0.970620000000     0.597620000000     1.42701    
Zr19     Zr     0.473050000000     0.348290000000     0.975140000000     1.42984    
Zr20     Zr     0.597070000000     0.472440000000     0.975260000000     1.44181    
Zr21     Zr     0.347950000000     0.473520000000     0.969120000000     1.42255    
Zr22     Zr     0.476460000000     0.471930000000     0.847360000000     1.43161    
Zr23     Zr     0.470170000000     0.475470000000     0.097960000000     1.43112    
Zr24     Zr     0.474390000000     0.597650000000     0.971200000000     1.43393    


