data_structure

_audit_creation_method RASPA-1.0
_audit_creation_date 2023-5-19
_audit_author_name 'Poobodin Mano'

_cell_length_a    19.8055
_cell_length_b    20.0443
_cell_length_c    19.911
_cell_angle_alpha 90
_cell_angle_beta  90
_cell_angle_gamma 90
_cell_volume      7904.42

_symmetry_cell_setting          triclinic
_symmetry_space_group_name_Hall 'P 1'
_symmetry_space_group_name_H-M  'P 1'
_symmetry_Int_Tables_number     1

_symmetry_equiv_pos_as_xyz 'x,y,z'

loop_
_atom_site_label
_atom_site_type_symbol
_atom_site_fract_x
_atom_site_fract_y
_atom_site_fract_z
_atom_site_charge
C1       C      0.965470000000     0.173050000000     0.185240000000     0.41137    
C2       C      0.040650000000     0.839030000000     0.188040000000     0.416169   
C3       C      0.841940000000     0.986770000000     0.180730000000     0.403808   
C4       C      0.176090000000     0.005740000000     0.205550000000     0.421466   
C5       C      0.077050000000     0.849240000000     0.848840000000     0.405067   
C6       C      0.013350000000     0.181810000000     0.852680000000     0.414479   
C7       C      0.882580000000     0.817000000000     0.995860000000     0.414218   
C8       C      0.212200000000     0.858360000000     0.043620000000     0.415614   
C9       C      0.181030000000     0.192510000000     0.052360000000     0.404587   
C10      C      0.841460000000     0.165890000000     0.009320000000     0.40119    
C11      C      0.867910000000     0.985100000000     0.837160000000     0.404543   
C12      C      0.213910000000     0.029830000000     0.867980000000     0.405335   
C13      C      0.970970000000     0.336270000000     0.359020000000     0.40704    
C14      C      0.993090000000     0.677700000000     0.349430000000     0.409232   
C15      C      0.808570000000     0.525710000000     0.397290000000     0.411523   
C16      C      0.147200000000     0.498390000000     0.312860000000     0.396028   
C17      C      0.054950000000     0.680680000000     0.685930000000     0.416642   
C18      C      0.050560000000     0.342170000000     0.687880000000     0.418931   
C19      C      0.878050000000     0.705980000000     0.548960000000     0.409279   
C20      C      0.210410000000     0.652930000000     0.481500000000     0.413428   
C21      C      0.160870000000     0.317500000000     0.487120000000     0.403116   
C22      C      0.830770000000     0.371750000000     0.574590000000     0.413195   
C23      C      0.889080000000     0.543330000000     0.722770000000     0.409607   
C24      C      0.214820000000     0.481490000000     0.655640000000     0.410699   
C25      C      0.689600000000     0.056270000000     0.349370000000     0.40585    
C26      C      0.346010000000     0.049970000000     0.346920000000     0.422088   
C27      C      0.552380000000     0.881220000000     0.320240000000     0.40413    
C28      C      0.477420000000     0.206570000000     0.373520000000     0.420273   
C29      C      0.334820000000     0.979100000000     0.675450000000     0.402455   
C30      C      0.681790000000     0.022060000000     0.691230000000     0.403215   
C31      C      0.373840000000     0.831180000000     0.463780000000     0.409522   
C32      C      0.318270000000     0.160200000000     0.542470000000     0.401361   
C33      C      0.655200000000     0.212240000000     0.541720000000     0.417041   
C34      C      0.709960000000     0.877450000000     0.504090000000     0.407462   
C35      C      0.517970000000     0.827110000000     0.656750000000     0.417033   
C36      C      0.494850000000     0.160120000000     0.711230000000     0.41098    
C37      C      0.360410000000     0.344820000000     0.021550000000     0.40581    
C38      C      0.351860000000     0.682980000000     0.987560000000     0.412258   
C39      C      0.348440000000     0.524360000000     0.184910000000     0.394519   
C40      C      0.379410000000     0.508750000000     0.834230000000     0.410554   
C41      C      0.687540000000     0.702620000000     0.012410000000     0.409771   
C42      C      0.699850000000     0.353650000000     0.056770000000     0.400989   
C43      C      0.507540000000     0.712080000000     0.169960000000     0.403511   
C44      C      0.549580000000     0.663200000000     0.831790000000     0.410793   
C45      C      0.547120000000     0.329230000000     0.877770000000     0.409233   
C46      C      0.517680000000     0.379400000000     0.214300000000     0.418979   
C47      C      0.695150000000     0.544140000000     0.197720000000     0.408201   
C48      C      0.718870000000     0.493080000000     0.867500000000     0.409211   
C49      C      0.488630000000     0.272690000000     0.269250000000     0.0800651  
C50      C      0.526410000000     0.830440000000     0.208220000000     0.0702106  
C51      C      0.529430000000     0.766270000000     0.765100000000     0.0785113  
C52      C      0.520530000000     0.265850000000     0.772870000000     0.0751846  
C53      C      0.763170000000     0.268120000000     0.569310000000     0.0796478  
C54      C      0.772440000000     0.771690000000     0.529610000000     0.0744884  
C55      C      0.202550000000     0.202300000000     0.514120000000     0.0714895  
C56      C      0.269380000000     0.761720000000     0.462460000000     0.0784315  
C57      C      0.734090000000     0.492690000000     0.302460000000     0.0793213  
C58      C      0.247370000000     0.470430000000     0.238380000000     0.0721938  
C59      C      0.275940000000     0.484090000000     0.765670000000     0.0755817  
C60      C      0.839330000000     0.505410000000     0.830310000000     0.071087   
C61      C      0.779850000000     0.759470000000     0.953260000000     0.0836328  
C62      C      0.796210000000     0.283080000000     0.018810000000     0.069534   
C63      C      0.310390000000     0.799630000000     0.998330000000     0.0733705  
C64      C      0.243280000000     0.297400000000     0.028690000000     0.0724174  
C65      C      0.800670000000     0.015500000000     0.736060000000     0.069839   
C66      C      0.266050000000     0.043240000000     0.754260000000     0.0768814  
C67      C      0.228110000000     0.048990000000     0.307140000000     0.0775798  
C68      C      0.737710000000     0.030850000000     0.235320000000     0.0700455  
C69      C      0.034880000000     0.231450000000     0.740720000000     0.0769504  
C70      C      0.077520000000     0.793440000000     0.736980000000     0.0760283  
C71      C      0.013460000000     0.729900000000     0.239270000000     0.0739632  
C72      C      0.953140000000     0.281980000000     0.245450000000     0.0753212  
H1       H      0.931550000000     0.900320000000     0.107030000000     0.209918   
H2       H      0.101890000000     0.112060000000     0.129780000000     0.208861   
H3       H      0.927690000000     0.095000000000     0.919870000000     0.20463    
H4       H      0.141240000000     0.929740000000     0.933190000000     0.215403   
H5       H      0.917340000000     0.617210000000     0.443760000000     0.210288   
H6       H      0.077250000000     0.402900000000     0.408840000000     0.209646   
H7       H      0.932990000000     0.430300000000     0.640010000000     0.21198    
H8       H      0.145810000000     0.591220000000     0.591480000000     0.205244   
H9       H      0.435270000000     0.929560000000     0.398390000000     0.208108   
H10      H      0.596840000000     0.141760000000     0.437190000000     0.207284   
H11      H      0.620820000000     0.927030000000     0.601320000000     0.205454   
H12      H      0.401780000000     0.084240000000     0.620560000000     0.214726   
H13      H      0.420680000000     0.622460000000     0.097920000000     0.207311   
H14      H      0.442930000000     0.410850000000     0.930920000000     0.21045    
H15      H      0.621540000000     0.443630000000     0.133800000000     0.209126   
H16      H      0.631620000000     0.607170000000     0.922230000000     0.211376   
H17      H      0.522410000000     0.363800000000     0.316210000000     0.106742   
H18      H      0.430650000000     0.296910000000     0.357110000000     0.106602   
H19      H      0.448830000000     0.266710000000     0.230310000000     0.0298723  
H20      H      0.530840000000     0.238220000000     0.256900000000     0.0316702  
H21      H      0.478090000000     0.751100000000     0.261030000000     0.105342   
H22      H      0.602830000000     0.802100000000     0.277640000000     0.109294   
H23      H      0.558000000000     0.834650000000     0.162270000000     0.0341719  
H24      H      0.485110000000     0.867940000000     0.206240000000     0.0296824  
H25      H      0.586040000000     0.679290000000     0.736720000000     0.105475   
H26      H      0.504330000000     0.726060000000     0.667710000000     0.107398   
H27      H      0.482330000000     0.771760000000     0.795000000000     0.0326664  
H28      H      0.564880000000     0.806530000000     0.780340000000     0.0286108  
H29      H      0.479130000000     0.174400000000     0.812240000000     0.105067   
H30      H      0.568230000000     0.229900000000     0.863180000000     0.106486   
H31      H      0.559580000000     0.274560000000     0.733720000000     0.0331973  
H32      H      0.479450000000     0.302900000000     0.765280000000     0.0289134  
H33      H      0.668170000000     0.313880000000     0.542260000000     0.107283   
H34      H      0.740820000000     0.357580000000     0.624250000000     0.104788   
H35      H      0.770960000000     0.230360000000     0.609490000000     0.0297194  
H36      H      0.796120000000     0.254750000000     0.526120000000     0.0324853  
H37      H      0.811850000000     0.864490000000     0.491020000000     0.105736   
H38      H      0.867040000000     0.805340000000     0.570950000000     0.106913   
H39      H      0.735040000000     0.763500000000     0.570420000000     0.0295289  
H40      H      0.761600000000     0.735210000000     0.488940000000     0.0312789  
H41      H      0.245800000000     0.273320000000     0.446880000000     0.107134   
H42      H      0.274110000000     0.244780000000     0.581610000000     0.107584   
H43      H      0.158410000000     0.200060000000     0.548520000000     0.0330811  
H44      H      0.200950000000     0.159220000000     0.478990000000     0.0318042  
H45      H      0.363540000000     0.743390000000     0.411950000000     0.103467   
H46      H      0.312800000000     0.663400000000     0.472900000000     0.10617    
H47      H      0.255430000000     0.788350000000     0.509480000000     0.0322574  
H48      H      0.232360000000     0.775890000000     0.423010000000     0.0290778  
H49      H      0.705280000000     0.540940000000     0.393540000000     0.108049   
H50      H      0.791720000000     0.552770000000     0.235630000000     0.111738   
H51      H      0.770460000000     0.451030000000     0.294910000000     0.0244031  
H52      H      0.682240000000     0.471300000000     0.303700000000     0.0240914  
H53      H      0.153690000000     0.515000000000     0.210420000000     0.106844   
H54      H      0.312520000000     0.543430000000     0.280520000000     0.109094   
H55      H      0.260950000000     0.434690000000     0.278910000000     0.0266492  
H56      H      0.244280000000     0.442520000000     0.190180000000     0.0279456  
H57      H      0.312130000000     0.447130000000     0.669820000000     0.104247   
H58      H      0.367720000000     0.530460000000     0.734430000000     0.10805    
H59      H      0.236400000000     0.519740000000     0.782400000000     0.035201   
H60      H      0.270540000000     0.437700000000     0.795790000000     0.0266485  
H61      H      0.757050000000     0.460440000000     0.776480000000     0.105618   
H62      H      0.812630000000     0.591000000000     0.773410000000     0.107239   
H63      H      0.847540000000     0.528800000000     0.880230000000     0.0336971  
H64      H      0.874700000000     0.462700000000     0.824460000000     0.0267948  
H65      H      0.870420000000     0.714710000000     0.988530000000     0.110685   
H66      H      0.710330000000     0.802440000000     0.021190000000     0.109639   
H67      H      0.771680000000     0.805440000000     0.922960000000     0.0235131  
H68      H      0.776410000000     0.715320000000     0.919440000000     0.0185436  
H69      H      0.730220000000     0.266480000000     0.101270000000     0.106957   
H70      H      0.740860000000     0.192170000000     0.997340000000     0.105836   
H71      H      0.788980000000     0.310280000000     0.970650000000     0.029893   
H72      H      0.847000000000     0.295950000000     0.038580000000     0.0385364  
H73      H      0.253470000000     0.712570000000     0.969400000000     0.106971   
H74      H      0.252790000000     0.773980000000     0.084680000000     0.108183   
H75      H      0.362240000000     0.810870000000     0.016330000000     0.0353264  
H76      H      0.300000000000     0.831380000000     0.953630000000     0.0262766  
H77      H      0.336900000000     0.244990000000     0.013220000000     0.106176   
H78      H      0.259330000000     0.228850000000     0.108490000000     0.103353   
H79      H      0.229900000000     0.345130000000     0.053800000000     0.0324164  
H80      H      0.216620000000     0.294910000000     0.979590000000     0.0284683  
H81      H      0.788930000000     0.931200000000     0.799540000000     0.105081   
H82      H      0.707630000000     0.023470000000     0.791650000000     0.105689   
H83      H      0.825420000000     0.064900000000     0.742410000000     0.0262699  
H84      H      0.814000000000     0.995620000000     0.685680000000     0.0331437  
H85      H      0.316750000000     0.032840000000     0.848560000000     0.110138   
H86      H      0.239180000000     0.953260000000     0.705490000000     0.107103   
H87      H      0.215090000000     0.060720000000     0.738680000000     0.0273727  
H88      H      0.303190000000     0.082850000000     0.740980000000     0.0188515  
H89      H      0.262450000000     0.967650000000     0.246940000000     0.109624   
H90      H      0.312990000000     0.097160000000     0.260460000000     0.106413   
H91      H      0.194140000000     0.092180000000     0.297340000000     0.0227698  
H92      H      0.214960000000     0.027630000000     0.356920000000     0.0346523  
H93      H      0.804900000000     0.956180000000     0.271910000000     0.107262   
H94      H      0.788740000000     0.072450000000     0.321210000000     0.105409   
H95      H      0.743340000000     0.071770000000     0.198020000000     0.0297374  
H96      H      0.688690000000     0.005420000000     0.226280000000     0.0363564  
H97      H      0.099670000000     0.310500000000     0.773380000000     0.10869    
H98      H      0.982340000000     0.275560000000     0.823800000000     0.107048   
H99      H      0.994930000000     0.224370000000     0.702170000000     0.0311583  
H100     H      0.072800000000     0.190860000000     0.735530000000     0.0311745  
H101     H      0.035360000000     0.706810000000     0.783340000000     0.11066    
H102     H      0.134590000000     0.767570000000     0.824090000000     0.103969   
H103     H      0.118650000000     0.798460000000     0.699340000000     0.0275597  
H104     H      0.036260000000     0.828890000000     0.724340000000     0.0337363  
H105     H      0.071310000000     0.809680000000     0.281910000000     0.109217   
H106     H      0.963440000000     0.772280000000     0.324200000000     0.105214   
H107     H      0.974680000000     0.727270000000     0.198950000000     0.0305492  
H108     H      0.049420000000     0.687770000000     0.232620000000     0.0325612  
H109     H      0.975960000000     0.236300000000     0.339930000000     0.106522   
H110     H      0.899550000000     0.190980000000     0.262670000000     0.104535   
H111     H      0.911400000000     0.317360000000     0.234430000000     0.0296188  
H112     H      0.998600000000     0.297550000000     0.216660000000     0.0297335  
N1       N      0.459600000000     0.259060000000     0.335090000000    -0.22858    
N2       N      0.513710000000     0.341010000000     0.269660000000    -0.229412   
N3       N      0.568900000000     0.840910000000     0.267710000000    -0.221462   
N4       N      0.496990000000     0.763430000000     0.213510000000    -0.222076   
N5       N      0.513420000000     0.770700000000     0.693520000000    -0.227384   
N6       N      0.560840000000     0.701550000000     0.777190000000    -0.227279   
N7       N      0.551060000000     0.273390000000     0.839590000000    -0.224757   
N8       N      0.492690000000     0.198230000000     0.767420000000    -0.224933   
N9       N      0.778480000000     0.334200000000     0.595790000000    -0.228279   
N10      N      0.692770000000     0.267940000000     0.547790000000    -0.228666   
N11      N      0.840950000000     0.762340000000     0.556160000000    -0.223806   
N12      N      0.766840000000     0.839830000000     0.503060000000    -0.224255   
N13      N      0.264810000000     0.201320000000     0.553950000000    -0.221926   
N14      N      0.202210000000     0.264510000000     0.475260000000    -0.221995   
N15      N      0.267050000000     0.689620000000     0.473470000000    -0.227187   
N16      N      0.337530000000     0.779100000000     0.440320000000    -0.226341   
N17      N      0.741870000000     0.539920000000     0.247270000000    -0.222468   
N18      N      0.747630000000     0.525730000000     0.366090000000    -0.223016   
N19      N      0.300350000000     0.521620000000     0.234330000000    -0.216543   
N20      N      0.181120000000     0.500370000000     0.252840000000    -0.217302   
N21      N      0.342190000000     0.513550000000     0.777280000000    -0.224588   
N22      N      0.269990000000     0.467950000000     0.693610000000    -0.22461    
N23      N      0.851020000000     0.555400000000     0.778110000000    -0.222921   
N24      N      0.769660000000     0.481170000000     0.823060000000    -0.223554   
N25      N      0.728860000000     0.756030000000     0.005650000000    -0.222973   
N26      N      0.846180000000     0.760890000000     0.983900000000    -0.223236   
N27      N      0.789460000000     0.210460000000     0.006480000000    -0.221181   
N28      N      0.745370000000     0.304080000000     0.068010000000    -0.220439   
N29      N      0.262730000000     0.814060000000     0.052440000000    -0.224737   
N30      N      0.302530000000     0.729160000000     0.979490000000    -0.225507   
N31      N      0.223540000000     0.241740000000     0.072010000000    -0.223932   
N32      N      0.316480000000     0.292980000000     0.017510000000    -0.224546   
N33      N      0.726980000000     0.023290000000     0.742730000000    -0.222812   
N34      N      0.823950000000     0.968490000000     0.787570000000    -0.221204   
N35      N      0.281890000000     0.981020000000     0.718720000000    -0.219723   
N36      N      0.268670000000     0.032920000000     0.826780000000    -0.220845   
N37      N      0.298110000000     0.071540000000     0.303790000000    -0.228117   
N38      N      0.220140000000     0.997620000000     0.256190000000    -0.227416   
N39      N      0.740760000000     0.059170000000     0.303710000000    -0.222114   
N40      N      0.792520000000     0.982000000000     0.227890000000    -0.221423   
N41      N      0.003880000000     0.230800000000     0.807140000000    -0.227951   
N42      N      0.068790000000     0.295610000000     0.733420000000    -0.22738    
N43      N      0.104330000000     0.805690000000     0.804410000000    -0.224571   
N44      N      0.051190000000     0.725420000000     0.736730000000    -0.225415   
N45      N      0.980100000000     0.726630000000     0.304700000000    -0.225328   
N46      N      0.050520000000     0.792970000000     0.236560000000    -0.225357   
N47      N      0.932310000000     0.213850000000     0.228390000000    -0.223783   
N48      N      0.967990000000     0.282890000000     0.317350000000    -0.225863   
O1       O      0.987360000000     0.197510000000     0.129350000000    -0.375092   
O2       O      0.035380000000     0.819030000000     0.126620000000    -0.37353    
O3       O      0.903010000000     0.981220000000     0.202410000000    -0.386884   
O4       O      0.114680000000     0.021550000000     0.220160000000    -0.388178   
O5       O      0.199370000000     0.997710000000     0.145740000000    -0.376099   
O6       O      0.825530000000     0.995250000000     0.118060000000    -0.371338   
O7       O      0.038310000000     0.900440000000     0.207120000000    -0.378501   
O8       O      0.968260000000     0.110660000000     0.201410000000    -0.379798   
O9       O      0.093160000000     0.949020000000     0.093510000000    -0.515902   
O10      O      0.946510000000     0.067610000000     0.081120000000    -0.509651   
O11      O      0.958080000000     0.932430000000     0.082300000000    -0.65212    
O12      O      0.080970000000     0.082720000000     0.097450000000    -0.654405   
O13      O      0.076360000000     0.830890000000     0.911170000000    -0.385757   
O14      O      0.005410000000     0.198170000000     0.914730000000    -0.389353   
O15      O      0.853120000000     0.875340000000     0.996820000000    -0.365787   
O16      O      0.227390000000     0.919960000000     0.031670000000    -0.371855   
O17      O      0.203340000000     0.132430000000     0.058580000000    -0.395555   
O18      O      0.827280000000     0.102550000000     0.003940000000    -0.370566   
O19      O      0.929590000000     0.000630000000     0.821210000000    -0.368636   
O20      O      0.153820000000     0.025940000000     0.841840000000    -0.368687   
O21      O      0.845680000000     0.978730000000     0.897710000000    -0.381831   
O22      O      0.226390000000     0.030150000000     0.931560000000    -0.384353   
O23      O      0.945880000000     0.807260000000     0.004320000000    -0.39854    
O24      O      0.901450000000     0.189580000000     0.017090000000    -0.371043   
O25      O      0.120060000000     0.208050000000     0.034290000000    -0.375321   
O26      O      0.151790000000     0.835240000000     0.047610000000    -0.379875   
O27      O      0.058530000000     0.907290000000     0.827260000000    -0.375206   
O28      O      0.028180000000     0.122670000000     0.831430000000    -0.38432    
O29      O      0.093960000000     0.085590000000     0.958510000000    -0.506234   
O30      O      0.971330000000     0.938110000000     0.946950000000    -0.501687   
O31      O      0.956830000000     0.070130000000     0.949580000000    -0.635433   
O32      O      0.106130000000     0.952500000000     0.957680000000    -0.659447   
O33      O      0.977840000000     0.321570000000     0.421570000000    -0.391977   
O34      O      0.007610000000     0.696500000000     0.409810000000    -0.385388   
O35      O      0.863090000000     0.513660000000     0.362800000000    -0.373801   
O36      O      0.082460000000     0.506860000000     0.309710000000    -0.371105   
O37      O      0.180410000000     0.489270000000     0.368550000000    -0.364369   
O38      O      0.807070000000     0.536670000000     0.460820000000    -0.390779   
O39      O      0.987250000000     0.616450000000     0.329660000000    -0.374574   
O40      O      0.970460000000     0.396560000000     0.334910000000    -0.375059   
O41      O      0.076720000000     0.566240000000     0.436580000000    -0.50084    
O42      O      0.926770000000     0.453330000000     0.472140000000    -0.504866   
O43      O      0.948150000000     0.586820000000     0.465500000000    -0.648844   
O44      O      0.058830000000     0.433770000000     0.441180000000    -0.650652   
O45      O      0.058360000000     0.701170000000     0.624220000000    -0.369185   
O46      O      0.023440000000     0.322690000000     0.632260000000    -0.38266    
O47      O      0.847670000000     0.648830000000     0.547800000000    -0.371523   
O48      O      0.218850000000     0.589180000000     0.481510000000    -0.394091   
O49      O      0.185420000000     0.375750000000     0.473870000000    -0.383431   
O50      O      0.823390000000     0.435410000000     0.579930000000    -0.391087   
O51      O      0.948920000000     0.518090000000     0.729820000000    -0.376175   
O52      O      0.161230000000     0.501030000000     0.686430000000    -0.385879   
O53      O      0.862400000000     0.558880000000     0.665940000000    -0.379092   
O54      O      0.219600000000     0.472960000000     0.591030000000    -0.370659   
O55      O      0.942470000000     0.714000000000     0.543970000000    -0.373926   
O56      O      0.884470000000     0.341940000000     0.552680000000    -0.380613   
O57      O      0.100210000000     0.306930000000     0.509280000000    -0.365527   
O58      O      0.153100000000     0.682980000000     0.489680000000    -0.385745   
O59      O      0.050560000000     0.619230000000     0.703900000000    -0.385996   
O60      O      0.063040000000     0.403310000000     0.703340000000    -0.383946   
O61      O      0.088550000000     0.435880000000     0.573500000000    -0.511857   
O62      O      0.977730000000     0.589260000000     0.598680000000    -0.515769   
O63      O      0.956360000000     0.453600000000     0.604530000000    -0.659573   
O64      O      0.109080000000     0.567790000000     0.570010000000    -0.646124   
O65      O      0.706010000000     0.059250000000     0.412400000000    -0.374754   
O66      O      0.326240000000     0.025150000000     0.403310000000    -0.384852   
O67      O      0.527820000000     0.940020000000     0.308380000000    -0.376835   
O68      O      0.502890000000     0.154670000000     0.344520000000    -0.38138    
O69      O      0.466760000000     0.212470000000     0.437060000000    -0.383844   
O70      O      0.564570000000     0.858060000000     0.379580000000    -0.373946   
O71      O      0.408160000000     0.057640000000     0.329080000000    -0.380055   
O72      O      0.628570000000     0.049420000000     0.327470000000    -0.377361   
O73      O      0.440240000000     0.082960000000     0.457120000000    -0.508731   
O74      O      0.594530000000     0.975110000000     0.440900000000    -0.513197   
O75      O      0.457960000000     0.954430000000     0.433210000000    -0.64826    
O76      O      0.573230000000     0.106410000000     0.460290000000    -0.646525   
O77      O      0.320130000000     0.972130000000     0.612760000000    -0.383124   
O78      O      0.703800000000     0.030250000000     0.630590000000    -0.376303   
O79      O      0.438560000000     0.824290000000     0.461970000000    -0.388104   
O80      O      0.377340000000     0.185220000000     0.553490000000    -0.382394   
O81      O      0.590930000000     0.220930000000     0.537790000000    -0.39428    
O82      O      0.651750000000     0.848070000000     0.504850000000    -0.378163   
O83      O      0.517870000000     0.883800000000     0.687670000000    -0.388135   
O84      O      0.493510000000     0.096420000000     0.720240000000    -0.381907   
O85      O      0.521240000000     0.819530000000     0.592450000000    -0.38323    
O86      O      0.498160000000     0.189070000000     0.653240000000    -0.374551   
O87      O      0.342430000000     0.884650000000     0.482820000000    -0.378198   
O88      O      0.718670000000     0.941320000000     0.504470000000    -0.379652   
O89      O      0.685480000000     0.155080000000     0.540040000000    -0.383693   
O90      O      0.307330000000     0.099160000000     0.523480000000    -0.365813   
O91      O      0.395020000000     0.990620000000     0.698580000000    -0.369515   
O92      O      0.618930000000     0.012710000000     0.707090000000    -0.37543    
O93      O      0.570010000000     0.083900000000     0.596200000000    -0.50963    
O94      O      0.455480000000     0.932960000000     0.569200000000    -0.506858   
O95      O      0.590130000000     0.954590000000     0.575820000000    -0.648433   
O96      O      0.433740000000     0.064350000000     0.590010000000    -0.659515   
O97      O      0.423580000000     0.329840000000     0.028660000000    -0.383332   
O98      O      0.413260000000     0.703950000000     0.991940000000    -0.385459   
O99      O      0.331640000000     0.512390000000     0.122670000000    -0.358714   
O100     O      0.350140000000     0.504430000000     0.892760000000    -0.364435   
O101     O      0.443420000000     0.511130000000     0.824760000000    -0.387583   
O102     O      0.408910000000     0.539080000000     0.204350000000    -0.372442   
O103     O      0.333600000000     0.621070000000     0.991510000000    -0.383823   
O104     O      0.337160000000     0.404900000000     0.016750000000    -0.380199   
O105     O      0.465840000000     0.573280000000     0.942410000000    -0.502182   
O106     O      0.457150000000     0.462270000000     0.093560000000    -0.506256   
O107     O      0.451770000000     0.592930000000     0.075290000000    -0.649096   
O108     O      0.467320000000     0.442470000000     0.958270000000    -0.652562   
O109     O      0.624620000000     0.716630000000     0.016490000000    -0.386825   
O110     O      0.637640000000     0.337250000000     0.065220000000    -0.384897   
O111     O      0.506780000000     0.653010000000     0.195620000000    -0.387106   
O112     O      0.558890000000     0.600150000000     0.823550000000    -0.387705   
O113     O      0.539250000000     0.386370000000     0.848610000000    -0.381279   
O114     O      0.522520000000     0.442540000000     0.224400000000    -0.391112   
O115     O      0.718410000000     0.545670000000     0.137480000000    -0.391558   
O116     O      0.734280000000     0.512100000000     0.927510000000    -0.382142   
O117     O      0.631440000000     0.541530000000     0.213470000000    -0.372005   
O118     O      0.657750000000     0.484050000000     0.846400000000    -0.377097   
O119     O      0.515310000000     0.724390000000     0.106480000000    -0.36504    
O120     O      0.516040000000     0.350950000000     0.156060000000    -0.381901   
O121     O      0.551190000000     0.320810000000     0.941900000000    -0.380525   
O122     O      0.532790000000     0.691490000000     0.887950000000    -0.375568   
O123     O      0.712620000000     0.642390000000     0.011540000000    -0.365687   
O124     O      0.720830000000     0.413390000000     0.040940000000    -0.357641   
O125     O      0.606500000000     0.446120000000     0.970790000000    -0.511575   
O126     O      0.592680000000     0.600080000000     0.083910000000    -0.505503   
O127     O      0.595180000000     0.467040000000     0.100550000000    -0.650098   
O128     O      0.601740000000     0.582360000000     0.951200000000    -0.653468   
Zr1      Zr     0.012470000000     0.006760000000     0.154880000000     1.44301    
Zr2      Zr     0.041200000000     0.877490000000     0.019310000000     1.45515    
Zr3      Zr     0.014160000000     0.143500000000     0.022620000000     1.4272     
Zr4      Zr     0.889040000000     0.994450000000     0.010330000000     1.40486    
Zr5      Zr     0.159920000000     0.022420000000     0.033350000000     1.43793    
Zr6      Zr     0.036930000000     0.013370000000     0.884340000000     1.41424    
Zr7      Zr     0.986060000000     0.508230000000     0.386650000000     1.41191    
Zr8      Zr     0.038610000000     0.644390000000     0.515820000000     1.42796    
Zr9      Zr     0.999540000000     0.377700000000     0.526010000000     1.43524    
Zr10     Zr     0.888380000000     0.533030000000     0.549990000000     1.44451    
Zr11     Zr     0.149170000000     0.490790000000     0.489780000000     1.42282    
Zr12     Zr     0.045540000000     0.511210000000     0.651890000000     1.44659    
Zr13     Zr     0.517960000000     0.039740000000     0.380480000000     1.43223    
Zr14     Zr     0.378940000000     0.998850000000     0.509300000000     1.43484    
Zr15     Zr     0.649310000000     0.040240000000     0.520790000000     1.42767    
Zr16     Zr     0.535820000000     0.889930000000     0.494360000000     1.43038    
Zr17     Zr     0.493450000000     0.149080000000     0.536900000000     1.44608    
Zr18     Zr     0.509740000000     0.998970000000     0.649920000000     1.42795    
Zr19     Zr     0.390600000000     0.514500000000     0.011410000000     1.40627    
Zr20     Zr     0.523500000000     0.653370000000     0.005180000000     1.43147    
Zr21     Zr     0.530920000000     0.389100000000     0.040720000000     1.43809    
Zr22     Zr     0.521300000000     0.540050000000     0.154330000000     1.4322     
Zr23     Zr     0.543530000000     0.501200000000     0.890590000000     1.44385    
Zr24     Zr     0.668130000000     0.526800000000     0.029380000000     1.41652    


