data_structure

_audit_creation_method RASPA-1.0
_audit_creation_date 2023-5-19
_audit_author_name 'Poobodin Mano'

_cell_length_a    20.4607
_cell_length_b    19.6792
_cell_length_c    20.9939
_cell_angle_alpha 90
_cell_angle_beta  90
_cell_angle_gamma 90
_cell_volume      8453.2

_symmetry_cell_setting          triclinic
_symmetry_space_group_name_Hall 'P 1'
_symmetry_space_group_name_H-M  'P 1'
_symmetry_Int_Tables_number     1

_symmetry_equiv_pos_as_xyz 'x,y,z'

loop_
_atom_site_label
_atom_site_type_symbol
_atom_site_fract_x
_atom_site_fract_y
_atom_site_fract_z
_atom_site_charge
C1       C      0.070660000000     0.221910000000     0.216240000000     0.404832   
C2       C      0.988740000000     0.883260000000     0.170710000000     0.404597   
C3       C      0.876040000000     0.101030000000     0.186460000000     0.403336   
C4       C      0.196330000000     0.007500000000     0.211280000000     0.400573   
C5       C      0.023330000000     0.923930000000     0.856340000000     0.407477   
C6       C      0.113530000000     0.259510000000     0.901810000000     0.401334   
C7       C      0.846650000000     0.959700000000     0.006630000000     0.406817   
C8       C      0.166110000000     0.856280000000     0.026670000000     0.403964   
C9       C      0.263150000000     0.180080000000     0.065510000000     0.407276   
C10      C      0.946460000000     0.285590000000     0.049980000000     0.410653   
C11      C      0.906800000000     0.128930000000     0.864370000000     0.401755   
C12      C      0.230440000000     0.043750000000     0.887050000000     0.402899   
C13      C      0.959050000000     0.390780000000     0.411600000000     0.39926    
C14      C      0.091220000000     0.706990000000     0.352700000000     0.407496   
C15      C      0.860440000000     0.617310000000     0.391390000000     0.409369   
C16      C      0.167200000000     0.492970000000     0.364350000000     0.402291   
C17      C      0.125170000000     0.760610000000     0.665850000000     0.405816   
C18      C      0.996260000000     0.441280000000     0.724420000000     0.406013   
C19      C      0.966550000000     0.807640000000     0.513730000000     0.400546   
C20      C      0.264870000000     0.650300000000     0.513170000000     0.405147   
C21      C      0.120240000000     0.350460000000     0.563520000000     0.410383   
C22      C      0.823580000000     0.497940000000     0.590940000000     0.401012   
C23      C      0.907250000000     0.689790000000     0.698000000000     0.408102   
C24      C      0.199730000000     0.523340000000     0.697740000000     0.401032   
C25      C      0.746070000000     0.135100000000     0.428550000000     0.404661   
C26      C      0.433270000000     0.073840000000     0.331970000000     0.401896   
C27      C      0.627490000000     0.936440000000     0.364340000000     0.404904   
C28      C      0.549030000000     0.270970000000     0.399780000000     0.409621   
C29      C      0.344350000000     0.013380000000     0.641420000000     0.402222   
C30      C      0.660280000000     0.078880000000     0.736310000000     0.399089   
C31      C      0.422210000000     0.879630000000     0.461650000000     0.406425   
C32      C      0.351300000000     0.209900000000     0.497860000000     0.410594   
C33      C      0.658510000000     0.280010000000     0.593790000000     0.400167   
C34      C      0.733580000000     0.935440000000     0.565250000000     0.403704   
C35      C      0.537500000000     0.878600000000     0.673310000000     0.404978   
C36      C      0.468470000000     0.212390000000     0.711030000000     0.406833   
C37      C      0.377140000000     0.420940000000     0.997380000000     0.410361   
C38      C      0.707480000000     0.379950000000     0.990930000000     0.414442   
C39      C      0.549420000000     0.446570000000     0.835720000000     0.404926   
C40      C      0.538580000000     0.359960000000     0.151730000000     0.40776    
C41      C      0.747150000000     0.713240000000     0.069340000000     0.407326   
C42      C      0.412050000000     0.751440000000     0.073450000000     0.40473    
C43      C      0.741190000000     0.587150000000     0.884670000000     0.410706   
C44      C      0.727440000000     0.503010000000     0.189160000000     0.408658   
C45      C      0.400960000000     0.550750000000     0.197710000000     0.40387    
C46      C      0.410070000000     0.613100000000     0.868250000000     0.401538   
C47      C      0.586050000000     0.778140000000     0.916550000000     0.404166   
C48      C      0.575940000000     0.692870000000     0.231590000000     0.404793   
C49      C      0.571480000000     0.323060000000     0.294790000000    -0.00568536 
C50      C      0.512490000000     0.303030000000     0.253760000000    -0.00480061 
C51      C      0.647780000000     0.824010000000     0.313940000000    -0.00784941 
C52      C      0.579430000000     0.800810000000     0.293880000000    -0.00882453 
C53      C      0.596300000000     0.839440000000     0.813500000000    -0.00591536 
C54      C      0.529910000000     0.827150000000     0.781450000000    -0.00852352 
C55      C      0.534810000000     0.340270000000     0.773110000000    -0.00777862 
C56      C      0.462040000000     0.324980000000     0.763700000000    -0.00602247 
C57      C      0.756680000000     0.349050000000     0.624590000000    -0.00555759 
C58      C      0.765660000000     0.416700000000     0.660680000000    -0.00942998 
C59      C      0.853830000000     0.913870000000     0.569840000000    -0.00665319 
C60      C      0.879280000000     0.895260000000     0.503110000000    -0.00740154 
C61      C      0.187310000000     0.255850000000     0.523310000000    -0.0050022  
C62      C      0.258160000000     0.281620000000     0.529720000000    -0.0109283  
C63      C      0.348700000000     0.742310000000     0.512030000000    -0.00975359 
C64      C      0.395710000000     0.756550000000     0.456630000000    -0.00829294 
C65      C      0.775820000000     0.520020000000     0.295330000000    -0.0121883  
C66      C      0.803360000000     0.592320000000     0.289620000000    -0.00352627 
C67      C      0.274250000000     0.487160000000     0.307690000000    -0.0119361  
C68      C      0.290610000000     0.528230000000     0.246670000000    -0.010737   
C69      C      0.305810000000     0.535700000000     0.752070000000    -0.0132113  
C70      C      0.306360000000     0.581190000000     0.812350000000    -0.012105   
C71      C      0.796520000000     0.637750000000     0.790460000000    -0.0061529  
C72      C      0.852170000000     0.689010000000     0.801560000000    -0.01258    
C73      C      0.794170000000     0.828790000000     0.074480000000    -0.00286753 
C74      C      0.782620000000     0.853320000000     0.005880000000    -0.0133838  
C75      C      0.843970000000     0.351060000000     0.048770000000    -0.0092807  
C76      C      0.820860000000     0.338850000000     0.979880000000     0.000825798
C77      C      0.269710000000     0.790900000000     0.020570000000    -0.0119771  
C78      C      0.298570000000     0.794730000000     0.088020000000    -0.00519702 
C79      C      0.328080000000     0.305950000000     0.994140000000    -0.00546641 
C80      C      0.330560000000     0.284560000000     0.064360000000    -0.00753935 
C81      C      0.764320000000     0.073840000000     0.798590000000    -0.00986972 
C82      C      0.793350000000     0.142140000000     0.819950000000    -0.00873237 
C83      C      0.278830000000     0.049920000000     0.777590000000    -0.0101273  
C84      C      0.283250000000     0.983220000000     0.740060000000    -0.00714546 
C85      C      0.308530000000     0.997560000000     0.257010000000    -0.0090672  
C86      C      0.331110000000     0.071050000000     0.267360000000    -0.0073236  
C87      C      0.808580000000     0.164420000000     0.330430000000    -0.00726269 
C88      C      0.826300000000     0.098600000000     0.295570000000    -0.00983831 
C89      C      0.039080000000     0.391640000000     0.824820000000    -0.00957322 
C90      C      0.087060000000     0.333390000000     0.809380000000    -0.0130934  
C91      C      0.116880000000     0.833870000000     0.761340000000    -0.00872731 
C92      C      0.057290000000     0.880130000000     0.750630000000    -0.00904265 
C93      C      0.058210000000     0.755090000000     0.248750000000    -0.0101957  
C94      C      0.007130000000     0.809930000000     0.264560000000    -0.00942448 
C95      C      0.026930000000     0.265820000000     0.319900000000    -0.00805104 
C96      C      0.971710000000     0.318960000000     0.314470000000    -0.0135935  
H1       H      0.928010000000     0.996400000000     0.108820000000     0.211354   
H2       H      0.159390000000     0.124090000000     0.147360000000     0.207505   
H3       H      0.000260000000     0.202680000000     0.953790000000     0.206697   
H4       H      0.125940000000     0.962000000000     0.940970000000     0.206569   
H5       H      0.984650000000     0.692380000000     0.436950000000     0.206383   
H6       H      0.074200000000     0.435810000000     0.462120000000     0.208259   
H7       H      0.926270000000     0.549140000000     0.650190000000     0.209945   
H8       H      0.172910000000     0.633910000000     0.611640000000     0.208476   
H9       H      0.502560000000     0.979950000000     0.410750000000     0.212199   
H10      H      0.633860000000     0.203260000000     0.485390000000     0.209659   
H11      H      0.627590000000     0.983300000000     0.637430000000     0.207038   
H12      H      0.409270000000     0.134130000000     0.605640000000     0.208019   
H13      H      0.648900000000     0.485720000000     0.923850000000     0.212778   
H14      H      0.458670000000     0.462300000000     0.101460000000     0.207328   
H15      H      0.482870000000     0.694650000000     0.966610000000     0.204264   
H16      H      0.665260000000     0.628550000000     0.144560000000     0.21009    
H17      H      0.536450000000     0.373480000000     0.379630000000     0.101157   
H18      H      0.527360000000     0.255640000000     0.162010000000     0.0988457  
H19      H      0.590320000000     0.373660000000     0.280600000000     0.046343   
H20      H      0.611230000000     0.285200000000     0.287880000000     0.0460576  
H21      H      0.472330000000     0.340090000000     0.262270000000     0.040615   
H22      H      0.495150000000     0.251720000000     0.268150000000     0.0418577  
H23      H      0.664210000000     0.922840000000     0.273090000000     0.098958   
H24      H      0.576130000000     0.698670000000     0.330290000000     0.099441   
H25      H      0.683850000000     0.804960000000     0.278560000000     0.0358876  
H26      H      0.659790000000     0.802620000000     0.361580000000     0.0435438  
H27      H      0.565390000000     0.826240000000     0.248590000000     0.0463717  
H28      H      0.544220000000     0.816410000000     0.331480000000     0.0400259  
H29      H      0.591160000000     0.883220000000     0.907860000000     0.0982901  
H30      H      0.549900000000     0.775970000000     0.692710000000     0.099749   
H31      H      0.614910000000     0.890230000000     0.798960000000     0.0368084  
H32      H      0.631520000000     0.800070000000     0.797070000000     0.0430507  
H33      H      0.495610000000     0.868630000000     0.794780000000     0.0449679  
H34      H      0.509380000000     0.778110000000     0.798380000000     0.0433674  
H35      H      0.550100000000     0.441380000000     0.736950000000     0.09941    
H36      H      0.439770000000     0.227440000000     0.804800000000     0.100636   
H37      H      0.562150000000     0.321760000000     0.730760000000     0.0446222  
H38      H      0.553090000000     0.312780000000     0.815850000000     0.046566   
H39      H      0.444860000000     0.348750000000     0.718620000000     0.0449392  
H40      H      0.434010000000     0.346710000000     0.804270000000     0.0411443  
H41      H      0.660100000000     0.384400000000     0.601280000000     0.102894   
H42      H      0.726870000000     0.509310000000     0.619130000000     0.0972261  
H43      H      0.772040000000     0.306180000000     0.655690000000     0.0395956  
H44      H      0.788050000000     0.347700000000     0.581430000000     0.0501014  
H45      H      0.812200000000     0.413780000000     0.688020000000     0.0386542  
H46      H      0.725450000000     0.422620000000     0.695910000000     0.0335625  
H47      H      0.776630000000     0.841140000000     0.575620000000     0.103551   
H48      H      0.983360000000     0.910700000000     0.499600000000     0.0987151  
H49      H      0.860350000000     0.969180000000     0.578660000000     0.04264    
H50      H      0.881870000000     0.885200000000     0.606430000000     0.0439621  
H51      H      0.875380000000     0.940940000000     0.472170000000     0.0347046  
H52      H      0.848870000000     0.854470000000     0.481350000000     0.0466339  
H53      H      0.111710000000     0.251150000000     0.593570000000     0.0990941  
H54      H      0.273950000000     0.231720000000     0.440170000000     0.0988312  
H55      H      0.187170000000     0.199650000000     0.529150000000     0.0327902  
H56      H      0.169690000000     0.267360000000     0.474290000000     0.031972   
H57      H      0.276590000000     0.272160000000     0.578810000000     0.0425478  
H58      H      0.261110000000     0.336800000000     0.519850000000     0.0515988  
H59      H      0.365090000000     0.634430000000     0.513800000000     0.0990942  
H60      H      0.344540000000     0.838310000000     0.412230000000     0.101023   
H61      H      0.305850000000     0.777060000000     0.510060000000     0.0507219  
H62      H      0.374920000000     0.752780000000     0.557350000000     0.0379969  
H63      H      0.382690000000     0.723540000000     0.415530000000     0.0397779  
H64      H      0.446880000000     0.745500000000     0.471210000000     0.0421485  
H65      H      0.820330000000     0.472290000000     0.214900000000     0.100061   
H66      H      0.766400000000     0.649090000000     0.369300000000     0.0993347  
H67      H      0.725840000000     0.521790000000     0.316140000000     0.0466236  
H68      H      0.808190000000     0.489650000000     0.326940000000     0.0449739  
H69      H      0.769730000000     0.623010000000     0.259540000000     0.0305621  
H70      H      0.852140000000     0.590670000000     0.266210000000     0.0420675  
H71      H      0.179210000000     0.465650000000     0.270050000000     0.0981931  
H72      H      0.380690000000     0.552770000000     0.293210000000     0.100966   
H73      H      0.292910000000     0.514050000000     0.350630000000     0.0459602  
H74      H      0.298900000000     0.436960000000     0.304620000000     0.0374084  
H75      H      0.260220000000     0.575020000000     0.245510000000     0.043338   
H76      H      0.279660000000     0.497840000000     0.203290000000     0.0386609  
H77      H      0.220050000000     0.487690000000     0.787090000000     0.0978536  
H78      H      0.387150000000     0.638290000000     0.775440000000     0.0979401  
H79      H      0.342950000000     0.495030000000     0.758290000000     0.0415979  
H80      H      0.318840000000     0.566130000000     0.709190000000     0.0378104  
H81      H      0.296610000000     0.549810000000     0.855390000000     0.0454193  
H82      H      0.266830000000     0.619590000000     0.807680000000     0.0389072  
H83      H      0.836420000000     0.568080000000     0.858210000000     0.100186   
H84      H      0.834680000000     0.757090000000     0.724590000000     0.099483   
H85      H      0.807660000000     0.606710000000     0.747550000000     0.0355323  
H86      H      0.749750000000     0.665250000000     0.782320000000     0.0428771  
H87      H      0.895900000000     0.663240000000     0.821820000000     0.0445915  
H88      H      0.835090000000     0.728300000000     0.835780000000     0.0378955  
H89      H      0.846540000000     0.733720000000     0.074450000000     0.100151   
H90      H      0.745210000000     0.955890000000     0.001900000000     0.0984593  
H91      H      0.752970000000     0.845930000000     0.105110000000     0.040375   
H92      H      0.840220000000     0.850750000000     0.093510000000     0.0410994  
H93      H      0.732900000000     0.837920000000     0.990130000000     0.0470776  
H94      H      0.819220000000     0.829350000000     0.973720000000     0.0506074  
H95      H      0.942140000000     0.390760000000     0.058710000000     0.0994469  
H96      H      0.731920000000     0.280920000000     0.966040000000     0.100899   
H97      H      0.821090000000     0.312550000000     0.080580000000     0.049278   
H98      H      0.828900000000     0.402280000000     0.065290000000     0.0483862  
H99      H      0.844820000000     0.293320000000     0.959140000000     0.0388499  
H100     H      0.834660000000     0.383610000000     0.950420000000     0.0401469  
H101     H      0.170970000000     0.751260000000     0.016660000000     0.0978783  
H102     H      0.388840000000     0.851100000000     0.096820000000     0.0993497  
H103     H      0.283800000000     0.741770000000     0.998370000000     0.0420007  
H104     H      0.290340000000     0.832870000000     0.991260000000     0.0464959  
H105     H      0.285700000000     0.747450000000     0.114220000000     0.0440326  
H106     H      0.277050000000     0.838680000000     0.113830000000     0.0443427  
H107     H      0.277780000000     0.401690000000     0.990390000000     0.101371   
H108     H      0.364510000000     0.181210000000     0.071570000000     0.0986911  
H109     H      0.283740000000     0.284110000000     0.971360000000     0.0463254  
H110     H      0.372100000000     0.286470000000     0.968980000000     0.0445959  
H111     H      0.291410000000     0.311250000000     0.091360000000     0.043285   
H112     H      0.378760000000     0.299180000000     0.084660000000     0.0356499  
H113     H      0.665580000000     0.070020000000     0.834810000000     0.0981737  
H114     H      0.884500000000     0.141220000000     0.768750000000     0.0987697  
H115     H      0.777250000000     0.035210000000     0.835140000000     0.0403258  
H116     H      0.787010000000     0.058160000000     0.752720000000     0.0458103  
H117     H      0.777230000000     0.153840000000     0.869320000000     0.0444204  
H118     H      0.774850000000     0.182360000000     0.787440000000     0.0399623  
H119     H      0.326250000000     0.019090000000     0.864560000000     0.0997038  
H120     H      0.244920000000     0.991780000000     0.644430000000     0.0972513  
H121     H      0.233550000000     0.077490000000     0.763890000000     0.0461551  
H122     H      0.321500000000     0.082130000000     0.764900000000     0.0441401  
H123     H      0.238680000000     0.952680000000     0.749920000000     0.0329163  
H124     H      0.326760000000     0.954020000000     0.756280000000     0.0435549  
H125     H      0.216890000000     0.990930000000     0.306710000000     0.0996611  
H126     H      0.429990000000     0.082760000000     0.233410000000     0.0976493  
H127     H      0.329570000000     0.965150000000     0.295240000000     0.0415563  
H128     H      0.326190000000     0.979030000000     0.210010000000     0.0439255  
H129     H      0.306300000000     0.092480000000     0.310050000000     0.0462206  
H130     H      0.316380000000     0.101540000000     0.225120000000     0.0359042  
H131     H      0.845250000000     0.157680000000     0.426510000000     0.097492   
H132     H      0.780110000000     0.126210000000     0.207160000000     0.100025   
H133     H      0.762080000000     0.185220000000     0.311040000000     0.0438365  
H134     H      0.848170000000     0.202030000000     0.321880000000     0.0345322  
H135     H      0.789070000000     0.059490000000     0.307580000000     0.0444388  
H136     H      0.874850000000     0.080330000000     0.312060000000     0.0456017  
H137     H      0.959600000000     0.355510000000     0.768320000000     0.0980725  
H138     H      0.149690000000     0.356470000000     0.888030000000     0.0979188  
H139     H      0.066520000000     0.439910000000     0.831580000000     0.0444451  
H140     H      0.012980000000     0.379040000000     0.869770000000     0.0355881  
H141     H      0.121200000000     0.351250000000     0.771760000000     0.0425928  
H142     H      0.059900000000     0.288460000000     0.791070000000     0.046101   
H143     H      0.171740000000     0.853490000000     0.676410000000     0.0984429  
H144     H      0.990360000000     0.834520000000     0.815930000000     0.103838   
H145     H      0.102430000000     0.787590000000     0.788350000000     0.0459651  
H146     H      0.153700000000     0.862280000000     0.789750000000     0.0319972  
H147     H      0.027860000000     0.859800000000     0.710360000000     0.042563   
H148     H      0.073810000000     0.932400000000     0.738510000000     0.0426651  
H149     H      0.137830000000     0.786690000000     0.307450000000     0.101609   
H150     H      0.946540000000     0.788980000000     0.184170000000     0.0971217  
H151     H      0.086620000000     0.771580000000     0.206300000000     0.0407412  
H152     H      0.033310000000     0.706240000000     0.237710000000     0.0430212  
H153     H      0.031290000000     0.854970000000     0.286300000000     0.0463362  
H154     H      0.971700000000     0.788450000000     0.299290000000     0.034116   
H155     H      0.092310000000     0.315630000000     0.255320000000     0.0994287  
H156     H      0.921940000000     0.293310000000     0.401320000000     0.0972454  
H157     H      0.005650000000     0.214340000000     0.326770000000     0.0424493  
H158     H      0.057400000000     0.278480000000     0.362130000000     0.0346332  
H159     H      0.932480000000     0.297260000000     0.284020000000     0.038644   
H160     H      0.990160000000     0.365970000000     0.291210000000     0.0484956  
N1       N      0.551410000000     0.326430000000     0.361600000000    -0.217384   
N2       N      0.529100000000     0.302260000000     0.185880000000    -0.217736   
N3       N      0.650000000000     0.898300000000     0.315070000000    -0.216156   
N4       N      0.577690000000     0.726730000000     0.287990000000    -0.215517   
N5       N      0.590330000000     0.837110000000     0.883100000000    -0.216581   
N6       N      0.538530000000     0.823440000000     0.712210000000    -0.215795   
N7       N      0.545030000000     0.413510000000     0.779100000000    -0.216271   
N8       N      0.452270000000     0.251370000000     0.762000000000    -0.216322   
N9       N      0.688440000000     0.340340000000     0.605950000000    -0.213173   
N10      N      0.766820000000     0.476210000000     0.617770000000    -0.213367   
N11      N      0.785390000000     0.893540000000     0.574470000000    -0.215454   
N12      N      0.947540000000     0.873390000000     0.505990000000    -0.215312   
N13      N      0.141530000000     0.285550000000     0.569100000000    -0.217622   
N14      N      0.297920000000     0.246470000000     0.482040000000    -0.215861   
N15      N      0.328180000000     0.671170000000     0.511520000000    -0.215647   
N16      N      0.387490000000     0.827130000000     0.437240000000    -0.216763   
N17      N      0.775160000000     0.489300000000     0.232050000000    -0.216178   
N18      N      0.807850000000     0.623630000000     0.352460000000    -0.217982   
N19      N      0.203860000000     0.476340000000     0.312600000000    -0.213793   
N20      N      0.359320000000     0.548120000000     0.248060000000    -0.214192   
N21      N      0.241530000000     0.504080000000     0.744500000000    -0.212363   
N22      N      0.368860000000     0.616950000000     0.817510000000    -0.213698   
N23      N      0.792850000000     0.592050000000     0.844750000000    -0.218222   
N24      N      0.868240000000     0.721040000000     0.741130000000    -0.216634   
N25      N      0.799610000000     0.754780000000     0.075220000000    -0.218359   
N26      N      0.788290000000     0.927280000000     0.002730000000    -0.216361   
N27      N      0.915110000000     0.346100000000     0.052790000000    -0.218484   
N28      N      0.749940000000     0.328970000000     0.978070000000    -0.21872    
N29      N      0.198070000000     0.795890000000     0.022430000000    -0.216145   
N30      N      0.369880000000     0.803200000000     0.085670000000    -0.215986   
N31      N      0.324430000000     0.379900000000     0.990350000000    -0.217354   
N32      N      0.322270000000     0.211070000000     0.069490000000    -0.217326   
N33      N      0.692640000000     0.077120000000     0.793070000000    -0.214009   
N34      N      0.865030000000     0.139610000000     0.814810000000    -0.214448   
N35      N      0.281530000000     0.035890000000     0.846230000000    -0.214516   
N36      N      0.287640000000     0.996650000000     0.671410000000    -0.215838   
N37      N      0.237050000000     0.994730000000     0.261050000000    -0.215192   
N38      N      0.402320000000     0.074650000000     0.274610000000    -0.21505    
N39      N      0.802960000000     0.151990000000     0.399030000000    -0.215922   
N40      N      0.824590000000     0.110050000000     0.226570000000    -0.214832   
N41      N      0.990750000000     0.397290000000     0.773870000000    -0.215453   
N42      N      0.124520000000     0.316250000000     0.866500000000    -0.214085   
N43      N      0.144980000000     0.815640000000     0.699780000000    -0.21625    
N44      N      0.016670000000     0.879290000000     0.807650000000    -0.216325   
N45      N      0.103080000000     0.748050000000     0.302230000000    -0.216454   
N46      N      0.972570000000     0.828240000000     0.206280000000    -0.215851   
N47      N      0.068750000000     0.269190000000     0.263400000000    -0.215211   
N48      N      0.944870000000     0.333640000000     0.377750000000    -0.214188   
O1       O      0.093270000000     0.242390000000     0.162250000000    -0.385716   
O2       O      0.983340000000     0.876030000000     0.110110000000    -0.390456   
O3       O      0.930760000000     0.078890000000     0.209520000000    -0.377919   
O4       O      0.135940000000     0.020190000000     0.225040000000    -0.384487   
O5       O      0.220530000000     0.008280000000     0.154220000000    -0.376178   
O6       O      0.866110000000     0.115030000000     0.127070000000    -0.378987   
O7       O      0.009300000000     0.938060000000     0.198910000000    -0.372297   
O8       O      0.049010000000     0.161020000000     0.227340000000    -0.370525   
O9       O      0.090820000000     0.977350000000     0.097130000000    -0.508048   
O10      O      0.004060000000     0.146900000000     0.104360000000    -0.50697    
O11      O      0.964670000000     0.018190000000     0.088320000000    -0.653968   
O12      O      0.128860000000     0.107520000000     0.115920000000    -0.651035   
O13      O      0.005730000000     0.902170000000     0.911500000000    -0.385639   
O14      O      0.122120000000     0.265740000000     0.962250000000    -0.382542   
O15      O      0.845420000000     0.024870000000     0.012400000000    -0.383289   
O16      O      0.200890000000     0.910140000000     0.035450000000    -0.3882     
O17      O      0.263280000000     0.114830000000     0.061530000000    -0.385913   
O18      O      0.911320000000     0.231780000000     0.041630000000    -0.38858    
O19      O      0.967390000000     0.117130000000     0.850280000000    -0.377747   
O20      O      0.175290000000     0.064940000000     0.864380000000    -0.379376   
O21      O      0.883700000000     0.130130000000     0.921740000000    -0.376202   
O22      O      0.240870000000     0.029160000000     0.946360000000    -0.373546   
O23      O      0.899230000000     0.923190000000     0.006910000000    -0.37659    
O24      O      0.009280000000     0.286160000000     0.054860000000    -0.384173   
O25      O      0.211080000000     0.217480000000     0.064390000000    -0.37978    
O26      O      0.103060000000     0.855900000000     0.020890000000    -0.381448   
O27      O      0.047820000000     0.983620000000     0.845140000000    -0.375721   
O28      O      0.093230000000     0.204450000000     0.873870000000    -0.375279   
O29      O      0.143260000000     0.122560000000     0.985360000000    -0.506267   
O30      O      0.979160000000     0.034140000000     0.959310000000    -0.506557   
O31      O      0.016580000000     0.164270000000     0.977570000000    -0.648341   
O32      O      0.104700000000     0.994330000000     0.968680000000    -0.64803    
O33      O      0.950990000000     0.387410000000     0.472470000000    -0.385962   
O34      O      0.115570000000     0.726450000000     0.406140000000    -0.38711    
O35      O      0.912200000000     0.586710000000     0.370200000000    -0.380666   
O36      O      0.107050000000     0.506650000000     0.352540000000    -0.386154   
O37      O      0.194110000000     0.495740000000     0.420720000000    -0.36041    
O38      O      0.854250000000     0.641400000000     0.448070000000    -0.39119    
O39      O      0.054940000000     0.653450000000     0.344920000000    -0.378083   
O40      O      0.982270000000     0.443310000000     0.381880000000    -0.373908   
O41      O      0.118080000000     0.596570000000     0.459790000000    -0.505695   
O42      O      0.941120000000     0.535870000000     0.489690000000    -0.512311   
O43      O      0.000670000000     0.658790000000     0.466600000000    -0.650837   
O44      O      0.063490000000     0.477330000000     0.484240000000    -0.651357   
O45      O      0.133200000000     0.763940000000     0.605160000000    -0.385475   
O46      O      0.973960000000     0.420150000000     0.670740000000    -0.382806   
O47      O      0.922170000000     0.761480000000     0.523110000000    -0.368423   
O48      O      0.255340000000     0.586060000000     0.519250000000    -0.38914    
O49      O      0.161060000000     0.395500000000     0.543490000000    -0.394476   
O50      O      0.829280000000     0.561930000000     0.576190000000    -0.373261   
O51      O      0.957010000000     0.654590000000     0.717860000000    -0.38196    
O52      O      0.146370000000     0.551380000000     0.716670000000    -0.383051   
O53      O      0.889400000000     0.695000000000     0.639610000000    -0.387982   
O54      O      0.214670000000     0.510550000000     0.638550000000    -0.36278    
O55      O      0.028520000000     0.795860000000     0.510590000000    -0.380741   
O56      O      0.870010000000     0.454090000000     0.586900000000    -0.384007   
O57      O      0.059670000000     0.362220000000     0.576890000000    -0.379817   
O58      O      0.218510000000     0.695230000000     0.510290000000    -0.374611   
O59      O      0.098010000000     0.710060000000     0.695590000000    -0.378225   
O60      O      0.024610000000     0.499550000000     0.733240000000    -0.368962   
O61      O      0.078100000000     0.499670000000     0.610150000000    -0.506311   
O62      O      0.015910000000     0.677850000000     0.591440000000    -0.50873    
O63      O      0.957930000000     0.557540000000     0.617050000000    -0.654227   
O64      O      0.134350000000     0.617170000000     0.590280000000    -0.648827   
O65      O      0.747890000000     0.128190000000     0.489720000000    -0.382867   
O66      O      0.399020000000     0.061120000000     0.382420000000    -0.368532   
O67      O      0.621620000000     0.000860000000     0.354250000000    -0.383045   
O68      O      0.568500000000     0.213730000000     0.376360000000    -0.383737   
O69      O      0.527590000000     0.279500000000     0.457110000000    -0.378966   
O70      O      0.612170000000     0.906150000000     0.417060000000    -0.379792   
O71      O      0.495350000000     0.086190000000     0.332100000000    -0.380882   
O72      O      0.694150000000     0.127350000000     0.394080000000    -0.379869   
O73      O      0.485230000000     0.140620000000     0.461630000000    -0.510237   
O74      O      0.637540000000     0.031690000000     0.486990000000    -0.502228   
O75      O      0.514250000000     0.007310000000     0.447160000000    -0.659198   
O76      O      0.607610000000     0.165820000000     0.500460000000    -0.649526   
O77      O      0.342130000000     0.021840000000     0.580250000000    -0.381691   
O78      O      0.693750000000     0.091530000000     0.685470000000    -0.383319   
O79      O      0.480390000000     0.868640000000     0.483970000000    -0.376743   
O80      O      0.398430000000     0.239520000000     0.528170000000    -0.380202   
O81      O      0.597410000000     0.284210000000     0.580040000000    -0.385812   
O82      O      0.679440000000     0.906000000000     0.550430000000    -0.385694   
O83      O      0.522220000000     0.936750000000     0.697770000000    -0.383044   
O84      O      0.472250000000     0.147760000000     0.720430000000    -0.385789   
O85      O      0.553190000000     0.869140000000     0.614310000000    -0.379336   
O86      O      0.480940000000     0.242250000000     0.657430000000    -0.378192   
O87      O      0.394090000000     0.938010000000     0.459910000000    -0.391591   
O88      O      0.741080000000     0.000620000000     0.572300000000    -0.369255   
O89      O      0.691860000000     0.223530000000     0.595280000000    -0.368078   
O90      O      0.351650000000     0.147650000000     0.479410000000    -0.387378   
O91      O      0.396370000000     0.020380000000     0.675870000000    -0.377689   
O92      O      0.597990000000     0.066350000000     0.736920000000    -0.374115   
O93      O      0.574050000000     0.143110000000     0.622380000000    -0.505299   
O94      O      0.477530000000     0.984360000000     0.571080000000    -0.509033   
O95      O      0.603210000000     0.010220000000     0.607210000000    -0.64656    
O96      O      0.448180000000     0.116760000000     0.585340000000    -0.655365   
O97      O      0.365380000000     0.483990000000     0.009150000000    -0.389774   
O98      O      0.731710000000     0.438370000000     0.005650000000    -0.383379   
O99      O      0.542580000000     0.411840000000     0.887770000000    -0.376611   
O100     O      0.541480000000     0.354370000000     0.090470000000    -0.380484   
O101     O      0.542970000000     0.416560000000     0.182610000000    -0.387516   
O102     O      0.560650000000     0.511060000000     0.833320000000    -0.383712   
O103     O      0.645810000000     0.366680000000     0.987480000000    -0.381983   
O104     O      0.434960000000     0.394320000000     0.993790000000    -0.381116   
O105     O      0.620120000000     0.473900000000     0.081440000000    -0.514283   
O106     O      0.495070000000     0.527360000000     0.956290000000    -0.502018   
O107     O      0.624110000000     0.509050000000     0.956280000000    -0.65662    
O108     O      0.489440000000     0.492710000000     0.081390000000    -0.647697   
O109     O      0.758870000000     0.649640000000     0.059550000000    -0.384269   
O110     O      0.387600000000     0.693190000000     0.058130000000    -0.390096   
O111     O      0.683480000000     0.605840000000     0.865630000000    -0.375616   
O112     O      0.668420000000     0.513080000000     0.209330000000    -0.38371    
O113     O      0.461420000000     0.544820000000     0.212710000000    -0.386613   
O114     O      0.470710000000     0.624190000000     0.855810000000    -0.385728   
O115     O      0.583860000000     0.782440000000     0.977980000000    -0.38163    
O116     O      0.578550000000     0.727540000000     0.179190000000    -0.379261   
O117     O      0.583720000000     0.721860000000     0.884940000000    -0.383161   
O118     O      0.571510000000     0.627520000000     0.234490000000    -0.377631   
O119     O      0.754130000000     0.563420000000     0.940030000000    -0.392706   
O120     O      0.387270000000     0.597190000000     0.924260000000    -0.362488   
O121     O      0.379230000000     0.559720000000     0.139830000000    -0.364798   
O122     O      0.745390000000     0.508240000000     0.130730000000    -0.391572   
O123     O      0.689470000000     0.740150000000     0.072410000000    -0.379787   
O124     O      0.474040000000     0.764180000000     0.078130000000    -0.378326   
O125     O      0.503750000000     0.624010000000     0.111110000000    -0.506773   
O126     O      0.640220000000     0.643380000000     0.989580000000    -0.510573   
O127     O      0.506600000000     0.658050000000     0.986730000000    -0.641581   
O128     O      0.635670000000     0.611340000000     0.112560000000    -0.660898   
Zr1      Zr     0.039090000000     0.054690000000     0.165600000000     1.41506    
Zr2      Zr     0.016290000000     0.942270000000     0.019390000000     1.4351     
Zr3      Zr     0.093130000000     0.198840000000     0.054450000000     1.43289    
Zr4      Zr     0.928670000000     0.110820000000     0.028220000000     1.43247    
Zr5      Zr     0.179040000000     0.030390000000     0.046440000000     1.42373    
Zr6      Zr     0.067170000000     0.087210000000     0.908500000000     1.41504    
Zr7      Zr     0.020480000000     0.557380000000     0.412620000000     1.41993    
Zr8      Zr     0.098030000000     0.695990000000     0.515890000000     1.43913    
Zr9      Zr     0.984530000000     0.457390000000     0.562110000000     1.44314    
Zr10     Zr     0.920280000000     0.637990000000     0.543260000000     1.42584    
Zr11     Zr     0.158710000000     0.517950000000     0.533030000000     1.41951    
Zr12     Zr     0.051390000000     0.598840000000     0.666100000000     1.42248    
Zr13     Zr     0.579850000000     0.097590000000     0.413680000000     1.43398    
Zr14     Zr     0.420950000000     0.050480000000     0.496460000000     1.43573    
Zr15     Zr     0.668600000000     0.101310000000     0.572580000000     1.41386    
Zr16     Zr     0.570560000000     0.941590000000     0.521300000000     1.42652    
Zr17     Zr     0.512170000000     0.206840000000     0.549900000000     1.4325     
Zr18     Zr     0.510070000000     0.052120000000     0.657580000000     1.42323    
Zr19     Zr     0.547910000000     0.434880000000     0.002400000000     1.42286    
Zr20     Zr     0.692990000000     0.550070000000     0.035730000000     1.44495    
Zr21     Zr     0.431950000000     0.581920000000     0.033790000000     1.41086    
Zr22     Zr     0.571690000000     0.602030000000     0.910780000000     1.43191    
Zr23     Zr     0.562840000000     0.535340000000     0.157780000000     1.43875    
Zr24     Zr     0.576680000000     0.700680000000     0.065340000000     1.418      


