data_structure

_audit_creation_method RASPA-1.0
_audit_creation_date 2023-5-19
_audit_author_name 'Poobodin Mano'

_cell_length_a    22.4264
_cell_length_b    21.7025
_cell_length_c    22.2945
_cell_angle_alpha 89.9998
_cell_angle_beta  89.9998
_cell_angle_gamma 89.9998
_cell_volume      10850.9

_symmetry_cell_setting          triclinic
_symmetry_space_group_name_Hall 'P 1'
_symmetry_space_group_name_H-M  'P 1'
_symmetry_Int_Tables_number     1

_symmetry_equiv_pos_as_xyz 'x,y,z'

loop_
_atom_site_label
_atom_site_type_symbol
_atom_site_fract_x
_atom_site_fract_y
_atom_site_fract_z
_atom_site_charge
C1       C      0.173590000000     0.079720000000     0.631700000000     0.414964   
C2       C      0.986360000000     0.161340000000     0.509300000000     0.415328   
C3       C      0.107500000000     0.236430000000     0.600190000000     0.414121   
C4       C      0.052210000000     0.006100000000     0.540910000000     0.414746   
C5       C      0.150470000000     0.677920000000     0.482400000000     0.414307   
C6       C      0.043040000000     0.559240000000     0.660790000000     0.414355   
C7       C      0.154380000000     0.515400000000     0.542360000000     0.414015   
C8       C      0.039700000000     0.720960000000     0.601480000000     0.414653   
C9       C      0.619150000000     0.114600000000     0.675660000000     0.414569   
C10      C      0.548170000000     0.091420000000     0.449290000000     0.41494    
C11      C      0.693700000000     0.123240000000     0.523510000000     0.415238   
C12      C      0.472570000000     0.084250000000     0.600010000000     0.414987   
C13      C      0.664440000000     0.061280000000     0.976160000000     0.414934   
C14      C      0.511910000000     0.131200000000     0.145530000000     0.414035   
C15      C      0.587080000000     0.981890000000     0.105870000000     0.413992   
C16      C      0.589690000000     0.209300000000     0.017420000000     0.41366    
C17      C      0.117650000000     0.591600000000     0.190240000000     0.414234   
C18      C      0.054390000000     0.558110000000     0.962790000000     0.414453   
C19      C      0.199090000000     0.586510000000     0.042900000000     0.413905   
C20      C      0.972230000000     0.564680000000     0.109590000000     0.413412   
C21      C      0.463740000000     0.517800000000     0.157790000000     0.413842   
C22      C      0.675900000000     0.616190000000     0.204870000000     0.413501   
C23      C      0.620490000000     0.457970000000     0.169000000000     0.414741   
C24      C      0.518550000000     0.677670000000     0.192840000000     0.4141     
C25      C      0.776550000000     0.652110000000     0.172830000000     0.019185   
C26      C      0.819190000000     0.597020000000     0.168090000000    -0.10986    
C27      C      0.872630000000     0.610980000000     0.127280000000     0.0175831  
C28      C      0.300290000000     0.542830000000     0.025810000000     0.0196413  
C29      C      0.333900000000     0.542510000000     0.085600000000    -0.108023   
C30      C      0.380810000000     0.491300000000     0.087950000000     0.0194753  
C31      C      0.541100000000     0.878310000000     0.115160000000     0.0183861  
C32      C      0.541750000000     0.826030000000     0.161560000000    -0.110303   
C33      C      0.490430000000     0.780500000000     0.152250000000     0.0200351  
C34      C      0.665980000000     0.376830000000     0.105450000000     0.021314   
C35      C      0.614950000000     0.340420000000     0.076660000000    -0.107407   
C36      C      0.633350000000     0.313910000000     0.015560000000     0.0216096  
C37      C      0.653770000000     0.066340000000     0.769530000000     0.0190092  
C38      C      0.670260000000     0.084610000000     0.833890000000    -0.111257   
C39      C      0.685230000000     0.027640000000     0.871830000000     0.022191   
C40      C      0.516630000000     0.137650000000     0.353080000000     0.0195601  
C41      C      0.502040000000     0.116550000000     0.289080000000    -0.111489   
C42      C      0.490290000000     0.171430000000     0.247540000000     0.0224865  
C43      C      0.035720000000     0.530920000000     0.768480000000     0.0214314  
C44      C      0.000020000000     0.579030000000     0.804180000000    -0.107883   
C45      C      0.031290000000     0.599600000000     0.862150000000     0.0180589  
C46      C      0.133000000000     0.659010000000     0.278510000000     0.0194645  
C47      C      0.159690000000     0.654080000000     0.341760000000    -0.11168    
C48      C      0.152350000000     0.714360000000     0.376870000000     0.0235457  
C49      C      0.281330000000     0.054020000000     0.638290000000     0.0217258  
C50      C      0.318200000000     0.109200000000     0.660320000000    -0.108049   
C51      C      0.371370000000     0.124090000000     0.619540000000     0.0181474  
C52      C      0.878850000000     0.184990000000     0.504070000000     0.0213359  
C53      C      0.831440000000     0.193680000000     0.455260000000    -0.111659   
C54      C      0.768140000000     0.194500000000     0.481240000000     0.0193483  
C55      C      0.961820000000     0.799980000000     0.582290000000     0.0186674  
C56      C      0.985990000000     0.847040000000     0.536880000000    -0.10826    
C57      C      0.007580000000     0.906180000000     0.567970000000     0.0206917  
C58      C      0.157700000000     0.412890000000     0.492710000000     0.0199399  
C59      C      0.120280000000     0.369670000000     0.532180000000    -0.106137   
C60      C      0.158290000000     0.335900000000     0.579080000000     0.0234595  
Cu1      Cu     0.111150000000     0.125680000000     0.524890000000     0.845952   
Cu2      Cu     0.048990000000     0.116640000000     0.616300000000     0.851054   
Cu3      Cu     0.138260000000     0.632540000000     0.605790000000     0.850747   
Cu4      Cu     0.055700000000     0.604080000000     0.537420000000     0.844027   
Cu5      Cu     0.593390000000     0.047290000000     0.564820000000     0.849054   
Cu6      Cu     0.573530000000     0.159480000000     0.560080000000     0.848977   
Cu7      Cu     0.630670000000     0.108520000000     0.094480000000     0.849826   
Cu8      Cu     0.545880000000     0.082460000000     0.027940000000     0.843309   
Cu9      Cu     0.092560000000     0.518990000000     0.082490000000     0.848289   
Cu10     Cu     0.079010000000     0.631580000000     0.070510000000     0.844634   
Cu11     Cu     0.577180000000     0.577700000000     0.126940000000     0.840951   
Cu12     Cu     0.561930000000     0.557770000000     0.235190000000     0.851258   
H1       H      0.756420000000     0.662320000000     0.128330000000     0.0366315  
H2       H      0.801810000000     0.693690000000     0.187090000000     0.024514   
H3       H      0.897860000000     0.514470000000     0.134690000000     0.0999965  
H4       H      0.835990000000     0.585210000000     0.213620000000     0.0568155  
H5       H      0.794390000000     0.556610000000     0.150220000000     0.0589689  
H6       H      0.895670000000     0.652880000000     0.144350000000     0.0363106  
H7       H      0.856730000000     0.620130000000     0.080900000000     0.0305103  
H8       H      0.743250000000     0.642670000000     0.262940000000     0.0997182  
H9       H      0.278160000000     0.497630000000     0.018120000000     0.0364141  
H10      H      0.332450000000     0.550160000000     0.988530000000     0.024858   
H11      H      0.385910000000     0.473230000000     0.182810000000     0.100579   
H12      H      0.356250000000     0.587790000000     0.092030000000     0.0609006  
H13      H      0.301450000000     0.535800000000     0.122770000000     0.0620091  
H14      H      0.413770000000     0.497220000000     0.051120000000     0.0360368  
H15      H      0.358730000000     0.445930000000     0.081330000000     0.0252452  
H16      H      0.272390000000     0.637220000000     0.015100000000     0.100333   
H17      H      0.496240000000     0.900240000000     0.114910000000     0.0343728  
H18      H      0.550390000000     0.859330000000     0.069800000000     0.0320985  
H19      H      0.475270000000     0.745630000000     0.241560000000     0.0999618  
H20      H      0.584910000000     0.800960000000     0.158540000000     0.0603794  
H21      H      0.537990000000     0.846210000000     0.207290000000     0.056056   
H22      H      0.493160000000     0.759390000000     0.106870000000     0.0364587  
H23      H      0.447220000000     0.805460000000     0.155070000000     0.0241126  
H24      H      0.619990000000     0.913200000000     0.160760000000     0.100301   
H25      H      0.681270000000     0.414170000000     0.074900000000     0.0347841  
H26      H      0.704580000000     0.345640000000     0.113130000000     0.0246459  
H27      H      0.558090000000     0.280660000000     0.963920000000     0.0999405  
H28      H      0.602030000000     0.302570000000     0.107650000000     0.0666757  
H29      H      0.575560000000     0.370890000000     0.070480000000     0.0624033  
H30      H      0.678590000000     0.292930000000     0.018040000000     0.0337469  
H31      H      0.635510000000     0.351830000000     0.982080000000     0.0233601  
H32      H      0.651060000000     0.373990000000     0.201160000000     0.100001   
H33      H      0.615960000000     0.033140000000     0.770760000000     0.0344621  
H34      H      0.692700000000     0.043470000000     0.748040000000     0.0334492  
H35      H      0.749300000000     0.051070000000     0.940460000000     0.100096   
H36      H      0.709450000000     0.116000000000     0.832850000000     0.0562341  
H37      H      0.632170000000     0.109570000000     0.854600000000     0.064891   
H38      H      0.722350000000     0.001760000000     0.850380000000     0.0228363  
H39      H      0.646120000000     0.996170000000     0.874170000000     0.0350591  
H40      H      0.635680000000     0.163910000000     0.753560000000     0.100655   
H41      H      0.477430000000     0.162060000000     0.372330000000     0.0327194  
H42      H      0.555130000000     0.169970000000     0.351840000000     0.0334018  
H43      H      0.426830000000     0.145400000000     0.179310000000     0.0998517  
H44      H      0.540080000000     0.089330000000     0.271130000000     0.0642748  
H45      H      0.461940000000     0.086420000000     0.290190000000     0.0560892  
H46      H      0.530680000000     0.201010000000     0.244230000000     0.0341594  
H47      H      0.453740000000     0.200160000000     0.266390000000     0.0228601  
H48      H      0.532050000000     0.040500000000     0.372630000000     0.100634   
H49      H      0.028880000000     0.484560000000     0.788400000000     0.0240338  
H50      H      0.084330000000     0.540870000000     0.770750000000     0.0395618  
H51      H      0.038150000000     0.503220000000     0.889200000000     0.100774   
H52      H      0.993470000000     0.620720000000     0.775900000000     0.0571594  
H53      H      0.955180000000     0.560210000000     0.815010000000     0.0539171  
H54      H      0.003720000000     0.636440000000     0.883000000000     0.0359092  
H55      H      0.075610000000     0.619590000000     0.851160000000     0.0331014  
H56      H      0.974020000000     0.508020000000     0.697580000000     0.0997357  
H57      H      0.159110000000     0.693040000000     0.252000000000     0.0338129  
H58      H      0.086010000000     0.675130000000     0.281540000000     0.0322306  
H59      H      0.219350000000     0.729170000000     0.445160000000     0.100579   
H60      H      0.136940000000     0.616200000000     0.366300000000     0.0666246  
H61      H      0.207870000000     0.642520000000     0.338260000000     0.0574311  
H62      H      0.104360000000     0.726970000000     0.380140000000     0.0322695  
H63      H      0.175490000000     0.752200000000     0.352590000000     0.0221716  
H64      H      0.144880000000     0.559550000000     0.273040000000     0.100379   
H65      H      0.302380000000     0.010550000000     0.653920000000     0.0244803  
H66      H      0.280310000000     0.052190000000     0.588430000000     0.039376   
H67      H      0.402400000000     0.029020000000     0.626720000000     0.100625   
H68      H      0.289290000000     0.150850000000     0.661710000000     0.0570278  
H69      H      0.334110000000     0.100360000000     0.706760000000     0.0544532  
H70      H      0.392000000000     0.167310000000     0.636560000000     0.036752   
H71      H      0.355500000000     0.132900000000     0.573070000000     0.0320641  
H72      H      0.215140000000     0.046130000000     0.708170000000     0.100461   
H73      H      0.869120000000     0.142180000000     0.529710000000     0.0383249  
H74      H      0.877650000000     0.224750000000     0.535510000000     0.032196   
H75      H      0.776820000000     0.094970000000     0.494050000000     0.101291   
H76      H      0.839670000000     0.238290000000     0.432150000000     0.0498741  
H77      H      0.835120000000     0.156360000000     0.421250000000     0.0550687  
H78      H      0.737270000000     0.211030000000     0.445650000000     0.0318458  
H79      H      0.765770000000     0.227460000000     0.519400000000     0.0339516  
H80      H      0.944790000000     0.193750000000     0.432710000000     0.0995025  
H81      H      0.936740000000     0.763450000000     0.558100000000     0.0365596  
H82      H      0.929710000000     0.822650000000     0.613230000000     0.0244706  
H83      H      0.056820000000     0.928810000000     0.486640000000     0.100811   
H84      H      0.023090000000     0.825710000000     0.511070000000     0.0596325  
H85      H      0.950000000000     0.859150000000     0.504680000000     0.0518189  
H86      H      0.038880000000     0.894700000000     0.604920000000     0.0337767  
H87      H      0.968260000000     0.930190000000     0.587500000000     0.0359168  
H88      H      0.028830000000     0.800150000000     0.651900000000     0.100211   
H89      H      0.129340000000     0.432100000000     0.456310000000     0.0348759  
H90      H      0.193980000000     0.386310000000     0.470670000000     0.0240481  
H91      H      0.101280000000     0.314040000000     0.654140000000     0.101244   
H92      H      0.084760000000     0.396590000000     0.555090000000     0.0634004  
H93      H      0.098230000000     0.335130000000     0.502770000000     0.0592388  
H94      H      0.180010000000     0.369990000000     0.609190000000     0.027667   
H95      H      0.194350000000     0.309150000000     0.556790000000     0.0347774  
H96      H      0.225620000000     0.454790000000     0.547920000000     0.099371   
N1       N      0.914250000000     0.558770000000     0.126250000000    -0.219399   
N2       N      0.730650000000     0.639330000000     0.217890000000    -0.220032   
N3       N      0.409960000000     0.491400000000     0.146710000000    -0.220116   
N4       N      0.256730000000     0.593070000000     0.025370000000    -0.220026   
N5       N      0.491920000000     0.733450000000     0.199370000000    -0.220253   
N6       N      0.586350000000     0.924590000000     0.130150000000    -0.22004    
N7       N      0.590260000000     0.267600000000     0.995390000000    -0.220786   
N8       N      0.646890000000     0.402050000000     0.163250000000    -0.221102   
N9       N      0.703660000000     0.045940000000     0.932260000000    -0.22073    
N10      N      0.636370000000     0.120200000000     0.733780000000    -0.219776   
N11      N      0.472460000000     0.149660000000     0.188060000000    -0.220952   
N12      N      0.531740000000     0.084840000000     0.391110000000    -0.220272   
N13      N      0.038980000000     0.548650000000     0.904680000000    -0.219655   
N14      N      0.014920000000     0.529390000000     0.706210000000    -0.220844   
N15      N      0.177910000000     0.708680000000     0.437100000000    -0.221046   
N16      N      0.134060000000     0.599020000000     0.248340000000    -0.220231   
N17      N      0.415790000000     0.074410000000     0.618710000000    -0.219638   
N18      N      0.220900000000     0.057520000000     0.662950000000    -0.220543   
N19      N      0.749020000000     0.133040000000     0.500930000000    -0.220045   
N20      N      0.938410000000     0.180620000000     0.477430000000    -0.221003   
N21      N      0.038610000000     0.947120000000     0.526000000000    -0.219873   
N22      N      0.010980000000     0.773560000000     0.617160000000    -0.219835   
N23      N      0.120820000000     0.295350000000     0.615630000000    -0.220954   
N24      N      0.183860000000     0.462650000000     0.528500000000    -0.220038   
O1       O      0.179460000000     0.093850000000     0.576100000000    -0.402455   
O2       O      0.036830000000     0.156590000000     0.482750000000    -0.404654   
O3       O      0.129380000000     0.213050000000     0.552110000000    -0.402721   
O4       O      0.086390000000     0.037490000000     0.506340000000    -0.401776   
O5       O      0.031330000000     0.029300000000     0.589500000000    -0.402915   
O6       O      0.072870000000     0.205060000000     0.634300000000    -0.403346   
O7       O      0.980490000000     0.147570000000     0.564980000000    -0.402865   
O8       O      0.123400000000     0.085810000000     0.658550000000    -0.403547   
O9       O      0.174950000000     0.676970000000     0.534390000000    -0.402286   
O10      O      0.093350000000     0.585660000000     0.670250000000    -0.402813   
O11      O      0.178450000000     0.553270000000     0.579250000000    -0.40381    
O12      O      0.089900000000     0.708680000000     0.626210000000    -0.404183   
O13      O      0.016620000000     0.684540000000     0.562520000000    -0.401978   
O14      O      0.103190000000     0.526490000000     0.518980000000    -0.402495   
O15      O      0.018410000000     0.560630000000     0.608910000000    -0.403787   
O16      O      0.100760000000     0.650430000000     0.472710000000    -0.404411   
O17      O      0.619950000000     0.061440000000     0.650550000000    -0.402981   
O18      O      0.564730000000     0.043610000000     0.478620000000    -0.404073   
O19      O      0.676950000000     0.067970000000     0.535170000000    -0.402001   
O20      O      0.507830000000     0.038120000000     0.593880000000    -0.402039   
O21      O      0.490010000000     0.139250000000     0.588420000000    -0.404091   
O22      O      0.658560000000     0.169120000000     0.531440000000    -0.40419    
O23      O      0.547690000000     0.144970000000     0.473780000000    -0.401332   
O24      O      0.601810000000     0.162620000000     0.646940000000    -0.401538   
O25      O      0.684630000000     0.080680000000     0.026530000000    -0.403475   
O26      O      0.568190000000     0.134290000000     0.155760000000    -0.403322   
O27      O      0.625940000000     0.020610000000     0.124690000000    -0.405229   
O28      O      0.627570000000     0.193730000000     0.057770000000    -0.405711   
O29      O      0.550980000000     0.170800000000     0.997660000000    -0.401786   
O30      O      0.548970000000     0.996810000000     0.065370000000    -0.399754   
O31      O      0.491870000000     0.110860000000     0.095480000000    -0.403505   
O32      O      0.608160000000     0.057130000000     0.966490000000    -0.402288   
O33      O      0.116520000000     0.537030000000     0.168330000000    -0.405034   
O34      O      0.067290000000     0.511420000000     0.995490000000    -0.404029   
O35      O      0.178490000000     0.533000000000     0.056180000000    -0.400794   
O36      O      0.005310000000     0.516470000000     0.107630000000    -0.401452   
O37      O      0.993070000000     0.617940000000     0.096040000000    -0.401783   
O38      O      0.166010000000     0.634580000000     0.045740000000    -0.4033     
O39      O      0.056240000000     0.613080000000     0.984050000000    -0.400218   
O40      O      0.103480000000     0.638610000000     0.158270000000    -0.400317   
O41      O      0.494700000000     0.540370000000     0.114590000000    -0.400882   
O42      O      0.658370000000     0.612340000000     0.150170000000    -0.40054    
O43      O      0.613670000000     0.492380000000     0.122720000000    -0.403899   
O44      O      0.539270000000     0.661380000000     0.141600000000    -0.40228    
O45      O      0.522290000000     0.641930000000     0.238510000000    -0.402812   
O46      O      0.602910000000     0.475520000000     0.221000000000    -0.403403   
O47      O      0.642660000000     0.597890000000     0.248120000000    -0.403932   
O48      O      0.482830000000     0.519300000000     0.211950000000    -0.403792   


