data_structure

_audit_creation_method RASPA-1.0
_audit_creation_date 2023-5-19
_audit_author_name 'Poobodin Mano'

_cell_length_a    26.6037
_cell_length_b    27.0792
_cell_length_c    27.5039
_cell_angle_alpha 89.9998
_cell_angle_beta  89.9998
_cell_angle_gamma 89.9998
_cell_volume      19814

_symmetry_cell_setting          triclinic
_symmetry_space_group_name_Hall 'P 1'
_symmetry_space_group_name_H-M  'P 1'
_symmetry_Int_Tables_number     1

_symmetry_equiv_pos_as_xyz 'x,y,z'

loop_
_atom_site_label
_atom_site_type_symbol
_atom_site_fract_x
_atom_site_fract_y
_atom_site_fract_z
_atom_site_charge
C1       C      0.054110000000     0.130020000000     0.479490000000     0.413875   
C2       C      0.026530000000     0.947370000000     0.545220000000     0.414255   
C3       C      0.138240000000     0.022350000000     0.501580000000     0.413184   
C4       C      0.942500000000     0.056120000000     0.522870000000     0.413004   
C5       C      0.063110000000     0.550580000000     0.414840000000     0.415141   
C6       C      0.025530000000     0.526930000000     0.602970000000     0.414711   
C7       C      0.080050000000     0.447420000000     0.503610000000     0.414273   
C8       C      0.008310000000     0.630320000000     0.514110000000     0.413185   
C9       C      0.534490000000     0.045610000000     0.643120000000     0.412133   
C10      C      0.556870000000     0.994450000000     0.457450000000     0.413156   
C11      C      0.644970000000     0.017830000000     0.561960000000     0.412859   
C12      C      0.446430000000     0.022150000000     0.539200000000     0.412619   
C13      C      0.574150000000     0.025440000000     0.142720000000     0.412561   
C14      C      0.513550000000     0.021030000000     0.958290000000     0.412504   
C15      C      0.527690000000     0.120210000000     0.052590000000     0.41363    
C16      C      0.559590000000     0.926420000000     0.048390000000     0.413588   
C17      C      0.036820000000     0.513510000000     0.102470000000     0.415065   
C18      C      0.060850000000     0.555200000000     0.915340000000     0.415101   
C19      C      0.147280000000     0.521300000000     0.019420000000     0.41407    
C20      C      0.950490000000     0.547070000000     0.998610000000     0.414631   
C21      C      0.565170000000     0.434920000000     0.000520000000     0.413713   
C22      C      0.539600000000     0.627840000000     0.026440000000     0.413329   
C23      C      0.454610000000     0.520960000000     0.998560000000     0.414266   
C24      C      0.650570000000     0.543020000000     0.028840000000     0.414435   
C25      C      0.787700000000     0.575250000000     0.017880000000    -0.0796083  
C26      C      0.821140000000     0.600100000000     0.979460000000    -0.0794728  
C27      C      0.876440000000     0.602090000000     0.995220000000     0.00877477 
C28      C      0.733930000000     0.568700000000     0.998920000000     0.00827563 
C29      C      0.316060000000     0.529300000000     0.016040000000    -0.0794552  
C30      C      0.281610000000     0.533940000000     0.060600000000    -0.079435   
C31      C      0.229160000000     0.553090000000     0.047140000000     0.00834826 
C32      C      0.368460000000     0.511130000000     0.030920000000     0.00761222 
C33      C      0.505890000000     0.752660000000     0.077230000000    -0.0797458  
C34      C      0.547970000000     0.788540000000     0.062350000000    -0.0792564  
C35      C      0.528210000000     0.841710000000     0.060720000000     0.00776209 
C36      C      0.524030000000     0.698970000000     0.080730000000     0.0084115  
C37      C      0.567080000000     0.296350000000     0.013750000000    -0.0811189  
C38      C      0.539950000000     0.258450000000     0.045980000000    -0.0805072  
C39      C      0.553810000000     0.205320000000     0.031730000000     0.00792577 
C40      C      0.556740000000     0.349440000000     0.030760000000     0.00828087 
C41      C      0.533950000000     0.044080000000     0.778760000000    -0.0796613  
C42      C      0.507530000000     0.018300000000     0.821530000000    -0.0814288  
C43      C      0.530280000000     0.034030000000     0.870570000000     0.00777131 
C44      C      0.514810000000     0.025150000000     0.729370000000     0.00673345 
C45      C      0.581760000000     0.024790000000     0.279470000000    -0.0812976  
C46      C      0.556320000000     0.997620000000     0.321960000000    -0.0791384  
C47      C      0.576350000000     0.015500000000     0.371380000000     0.00669158 
C48      C      0.558320000000     0.010470000000     0.230330000000     0.0075456  
C49      C      0.035570000000     0.522280000000     0.739060000000    -0.0815156  
C50      C      0.061930000000     0.552630000000     0.778660000000    -0.0806068  
C51      C      0.052770000000     0.530810000000     0.829330000000     0.00863873 
C52      C      0.049140000000     0.541650000000     0.688370000000     0.0088561  
C53      C      0.031760000000     0.519090000000     0.239020000000    -0.0817096  
C54      C      0.056220000000     0.551230000000     0.278410000000    -0.0805247  
C55      C      0.040690000000     0.534200000000     0.329390000000     0.00858858 
C56      C      0.042940000000     0.539340000000     0.188110000000     0.00901987 
C57      C      0.313460000000     0.065980000000     0.543340000000    -0.0794921  
C58      C      0.278190000000     0.037190000000     0.509300000000    -0.079793   
C59      C      0.225200000000     0.033240000000     0.531170000000     0.00740554 
C60      C      0.367650000000     0.068640000000     0.524120000000     0.00775033 
C61      C      0.782910000000     0.048990000000     0.569110000000    -0.0794325  
C62      C      0.814680000000     0.096390000000     0.567490000000    -0.0795     
C63      C      0.871200000000     0.085930000000     0.572520000000     0.00821734 
C64      C      0.726860000000     0.060770000000     0.562630000000     0.00770311 
C65      C      0.021170000000     0.811210000000     0.547890000000    -0.0812413  
C66      C      0.993950000000     0.767900000000     0.523240000000    -0.0799332  
C67      C      0.019660000000     0.718550000000     0.534650000000     0.00737536 
C68      C      0.998220000000     0.860810000000     0.532730000000     0.00927189 
C69      C      0.063920000000     0.266800000000     0.472190000000    -0.0804078  
C70      C      0.090270000000     0.309860000000     0.498130000000    -0.0809169  
C71      C      0.068840000000     0.359590000000     0.481380000000     0.00815525 
C72      C      0.081020000000     0.216800000000     0.492440000000     0.00796086 
Cu1      Cu     0.047950000000     0.053290000000     0.554400000000     0.845373   
Cu2      Cu     0.032650000000     0.024140000000     0.470340000000     0.846084   
Cu3      Cu     0.086730000000     0.554590000000     0.518830000000     0.848727   
Cu4      Cu     0.001720000000     0.523170000000     0.498970000000     0.848125   
Cu5      Cu     0.543120000000     0.975830000000     0.561830000000     0.844593   
Cu6      Cu     0.548330000000     0.064070000000     0.538790000000     0.844225   
Cu7      Cu     0.587450000000     0.030740000000     0.036750000000     0.843371   
Cu8      Cu     0.500120000000     0.015920000000     0.064290000000     0.846335   
Cu9      Cu     0.043820000000     0.489940000000     0.998740000000     0.848153   
Cu10     Cu     0.053960000000     0.578540000000     0.019020000000     0.849647   
Cu11     Cu     0.546270000000     0.524430000000     0.057620000000     0.846856   
Cu12     Cu     0.559140000000     0.538410000000     0.969510000000     0.847587   
H1       H      0.733710000000     0.542310000000     0.967920000000     0.0360155  
H2       H      0.719350000000     0.604540000000     0.985010000000     0.0348247  
H3       H      0.896860000000     0.628430000000     0.971270000000     0.0347767  
H4       H      0.879840000000     0.616610000000     0.032910000000     0.034279   
H5       H      0.807660000000     0.638510000000     0.973610000000     0.0407398  
H6       H      0.818250000000     0.580220000000     0.944160000000     0.0447603  
H7       H      0.878860000000     0.522540000000     0.982690000000     0.0997678  
H8       H      0.802960000000     0.538380000000     0.027750000000     0.047991   
H9       H      0.787120000000     0.598630000000     0.051140000000     0.0453263  
H10      H      0.713880000000     0.545980000000     0.072530000000     0.0994437  
H11      H      0.366350000000     0.471540000000     0.041410000000     0.0313947  
H12      H      0.381760000000     0.532080000000     0.063290000000     0.0384094  
H13      H      0.211030000000     0.568020000000     0.080510000000     0.0345155  
H14      H      0.231710000000     0.584430000000     0.021110000000     0.0348526  
H15      H      0.298720000000     0.560590000000     0.086550000000     0.0406139  
H16      H      0.278370000000     0.497770000000     0.079530000000     0.0443023  
H17      H      0.212200000000     0.479050000000     0.020110000000     0.0992518  
H18      H      0.299550000000     0.503110000000     0.989300000000     0.0462212  
H19      H      0.319650000000     0.566130000000     0.998430000000     0.0474002  
H20      H      0.391070000000     0.517530000000     0.955080000000     0.0994379  
H21      H      0.495200000000     0.677000000000     0.100500000000     0.0355929  
H22      H      0.559120000000     0.696690000000     0.102600000000     0.0331794  
H23      H      0.497200000000     0.844550000000     0.033720000000     0.0347561  
H24      H      0.512250000000     0.851940000000     0.096750000000     0.0361308  
H25      H      0.562830000000     0.778490000000     0.025910000000     0.046098   
H26      H      0.579210000000     0.786320000000     0.089140000000     0.0457252  
H27      H      0.603310000000     0.864000000000     0.037320000000     0.0991834  
H28      H      0.491270000000     0.763740000000     0.113510000000     0.0404388  
H29      H      0.474200000000     0.754900000000     0.050920000000     0.0451374  
H30      H      0.533450000000     0.699750000000     0.001870000000     0.0994184  
H31      H      0.578270000000     0.357190000000     0.064590000000     0.0366865  
H32      H      0.516210000000     0.353980000000     0.039760000000     0.033935   
H33      H      0.552770000000     0.201190000000     0.991500000000     0.0323854  
H34      H      0.592900000000     0.197090000000     0.043620000000     0.0379689  
H35      H      0.498720000000     0.263920000000     0.041840000000     0.0443539  
H36      H      0.549990000000     0.264460000000     0.084790000000     0.0454303  
H37      H      0.483430000000     0.181670000000     0.064880000000     0.099061   
H38      H      0.608310000000     0.289620000000     0.014440000000     0.0450028  
H39      H      0.553570000000     0.291710000000     0.975740000000     0.0447007  
H40      H      0.579540000000     0.373350000000     0.958290000000     0.0991878  
H41      H      0.473140000000     0.021990000000     0.730310000000     0.0306205  
H42      H      0.530260000000     0.987660000000     0.722310000000     0.0396656  
H43      H      0.568040000000     0.016950000000     0.874970000000     0.0382611  
H44      H      0.535610000000     0.074770000000     0.871300000000     0.031979   
H45      H      0.510900000000     0.977540000000     0.817780000000     0.046039   
H46      H      0.466960000000     0.028220000000     0.820580000000     0.0441365  
H47      H      0.459330000000     0.014030000000     0.904860000000     0.0988162  
H48      H      0.526900000000     0.084460000000     0.781780000000     0.0438695  
H49      H      0.575220000000     0.037830000000     0.780870000000     0.0459293  
H50      H      0.528400000000     0.097380000000     0.697890000000     0.0984714  
H51      H      0.520400000000     0.027440000000     0.226940000000     0.0380076  
H52      H      0.553250000000     0.969740000000     0.228400000000     0.0324739  
H53      H      0.618040000000     0.018090000000     0.369930000000     0.0305952  
H54      H      0.561540000000     0.053110000000     0.379080000000     0.0393774  
H55      H      0.563620000000     0.957380000000     0.317870000000     0.0440182  
H56      H      0.514980000000     0.003660000000     0.320750000000     0.0458402  
H57      H      0.562770000000     0.942990000000     0.402280000000     0.0989824  
H58      H      0.578250000000     0.065410000000     0.284450000000     0.0455796  
H59      H      0.622410000000     0.015110000000     0.279490000000     0.0441907  
H60      H      0.628440000000     0.032970000000     0.195950000000     0.0989878  
H61      H      0.088850000000     0.532020000000     0.679890000000     0.0379862  
H62      H      0.046260000000     0.582640000000     0.687600000000     0.0321177  
H63      H      0.012630000000     0.519970000000     0.833390000000     0.0337428  
H64      H      0.075610000000     0.496740000000     0.834110000000     0.0366313  
H65      H      0.047080000000     0.591020000000     0.777290000000     0.0442407  
H66      H      0.103110000000     0.553870000000     0.771770000000     0.0447705  
H67      H      0.073090000000     0.603160000000     0.858160000000     0.0989818  
H68      H      0.046810000000     0.482810000000     0.741730000000     0.0456094  
H69      H      0.994230000000     0.524920000000     0.744640000000     0.0449187  
H70      H      0.980660000000     0.507010000000     0.661210000000     0.0994732  
H71      H      0.083190000000     0.550170000000     0.185290000000     0.0329781  
H72      H      0.020270000000     0.573230000000     0.181560000000     0.036576   
H73      H      0.000930000000     0.544820000000     0.336380000000     0.0375673  
H74      H      0.042790000000     0.493230000000     0.331910000000     0.0323917  
H75      H      0.045030000000     0.590510000000     0.273620000000     0.0450596  
H76      H      0.097760000000     0.548560000000     0.274520000000     0.0440747  
H77      H      0.108390000000     0.570040000000     0.356850000000     0.0990221  
H78      H      0.046890000000     0.480930000000     0.242290000000     0.0444764  
H79      H      0.990340000000     0.517740000000     0.244360000000     0.0455009  
H80      H      0.025490000000     0.465850000000     0.160200000000     0.0991219  
H81      H      0.386650000000     0.100840000000     0.541270000000     0.0372737  
H82      H      0.367900000000     0.075330000000     0.484240000000     0.0319443  
H83      H      0.225640000000     0.007010000000     0.562260000000     0.0334641  
H84      H      0.213320000000     0.069800000000     0.545710000000     0.0372823  
H85      H      0.293080000000     0.999420000000     0.502720000000     0.0455993  
H86      H      0.276060000000     0.056870000000     0.473850000000     0.0458878  
H87      H      0.201120000000     0.000940000000     0.462340000000     0.0990384  
H88      H      0.299010000000     0.104350000000     0.546990000000     0.04081    
H89      H      0.313400000000     0.049110000000     0.580240000000     0.0459335  
H90      H      0.375720000000     0.990380000000     0.540500000000     0.0996861  
H91      H      0.720380000000     0.077150000000     0.526050000000     0.0360083  
H92      H      0.714900000000     0.088740000000     0.589910000000     0.0346256  
H93      H      0.890920000000     0.121090000000     0.581090000000     0.0346356  
H94      H      0.878460000000     0.060600000000     0.603580000000     0.0347306  
H95      H      0.803120000000     0.120760000000     0.598060000000     0.0406523  
H96      H      0.807650000000     0.116770000000     0.533040000000     0.0446351  
H97      H      0.869050000000     0.057670000000     0.498220000000     0.0995022  
H98      H      0.794900000000     0.023310000000     0.539790000000     0.0476439  
H99      H      0.788620000000     0.030410000000     0.604760000000     0.0453436  
H100     H      0.712220000000     0.983160000000     0.578680000000     0.0994916  
H101     H      0.956830000000     0.859440000000     0.538260000000     0.0293481  
H102     H      0.005340000000     0.867160000000     0.493370000000     0.0396724  
H103     H      0.057610000000     0.717710000000     0.517640000000     0.0384905  
H104     H      0.024960000000     0.714750000000     0.574590000000     0.0321787  
H105     H      0.993560000000     0.773320000000     0.483150000000     0.0460398  
H106     H      0.954410000000     0.766830000000     0.536390000000     0.0437424  
H107     H      0.951090000000     0.681910000000     0.510670000000     0.0991176  
H108     H      0.018230000000     0.806810000000     0.588010000000     0.0440203  
H109     H      0.061650000000     0.810980000000     0.537740000000     0.047583   
H110     H      0.021940000000     0.895270000000     0.600030000000     0.0987261  
H111     H      0.067890000000     0.212890000000     0.530650000000     0.0390372  
H112     H      0.122790000000     0.215200000000     0.492650000000     0.0298718  
H113     H      0.069120000000     0.361350000000     0.440980000000     0.0307251  
H114     H      0.029040000000     0.362760000000     0.493440000000     0.0391026  
H115     H      0.131180000000     0.308310000000     0.489900000000     0.0435007  
H116     H      0.085140000000     0.306540000000     0.538130000000     0.0462261  
H117     H      0.137120000000     0.395560000000     0.506740000000     0.0988059  
H118     H      0.022490000000     0.269930000000     0.476780000000     0.0464174  
H119     H      0.072720000000     0.268790000000     0.432700000000     0.0435528  
H120     H      0.059400000000     0.181830000000     0.424550000000     0.0988396  
N1       N      0.900420000000     0.553440000000     0.992020000000    -0.218573   
N2       N      0.700210000000     0.550660000000     0.037150000000    -0.218827   
N3       N      0.197170000000     0.514110000000     0.026720000000    -0.218309   
N4       N      0.404420000000     0.516570000000     0.990860000000    -0.21862    
N5       N      0.567830000000     0.876960000000     0.047650000000    -0.218507   
N6       N      0.532630000000     0.677080000000     0.032650000000    -0.218134   
N7       N      0.518630000000     0.169520000000     0.052850000000    -0.218373   
N8       N      0.569990000000     0.385610000000     0.993170000000    -0.218328   
N9       N      0.497510000000     0.020470000000     0.911410000000    -0.217958   
N10      N      0.528120000000     0.059540000000     0.690160000000    -0.217691   
N11      N      0.563090000000     0.980760000000     0.410310000000    -0.217586   
N12      N      0.590400000000     0.025640000000     0.189530000000    -0.21792    
N13      N      0.065090000000     0.566540000000     0.867540000000    -0.219105   
N14      N      0.015450000000     0.521770000000     0.651010000000    -0.219253   
N15      N      0.073590000000     0.555160000000     0.366840000000    -0.219079   
N16      N      0.032360000000     0.502560000000     0.150360000000    -0.219176   
N17      N      0.188450000000     0.016240000000     0.495060000000    -0.218217   
N18      N      0.395590000000     0.023210000000     0.534860000000    -0.217858   
N19      N      0.892560000000     0.065070000000     0.527830000000    -0.217894   
N20      N      0.695570000000     0.016530000000     0.568260000000    -0.218422   
N21      N      0.989420000000     0.676730000000     0.517500000000    -0.217971   
N22      N      0.018260000000     0.901160000000     0.562600000000    -0.218601   
N23      N      0.098820000000     0.400960000000     0.499960000000    -0.218565   
N24      N      0.062400000000     0.176190000000     0.462080000000    -0.218527   
O1       O      0.057410000000     0.121550000000     0.525280000000    -0.402595   
O2       O      0.037540000000     0.981970000000     0.575230000000    -0.403096   
O3       O      0.121730000000     0.039400000000     0.542060000000    -0.402474   
O4       O      0.972510000000     0.064920000000     0.558390000000    -0.401102   
O5       O      0.958870000000     0.039110000000     0.482350000000    -0.40241    
O6       O      0.108150000000     0.012040000000     0.466550000000    -0.401716   
O7       O      0.022570000000     0.956020000000     0.499520000000    -0.402168   
O8       O      0.043730000000     0.095280000000     0.449420000000    -0.40318    
O9       O      0.096770000000     0.562560000000     0.446050000000    -0.404321   
O10      O      0.068230000000     0.544120000000     0.589480000000    -0.404026   
O11      O      0.109860000000     0.483060000000     0.514260000000    -0.402965   
O12      O      0.055220000000     0.622720000000     0.521920000000    -0.402339   
O13      O      0.978560000000     0.594610000000     0.503570000000    -0.40259    
O14      O      0.033180000000     0.455130000000     0.495810000000    -0.403463   
O15      O      0.991730000000     0.515130000000     0.571820000000    -0.403094   
O16      O      0.020300000000     0.533540000000     0.428260000000    -0.403524   
O17      O      0.534580000000     0.999660000000     0.631610000000    -0.399499   
O18      O      0.551550000000     0.960770000000     0.489850000000    -0.401839   
O19      O      0.619220000000     0.978500000000     0.569500000000    -0.401596   
O20      O      0.467740000000     0.981690000000     0.551870000000    -0.402352   
O21      O      0.472270000000     0.061400000000     0.531330000000    -0.40118    
O22      O      0.623660000000     0.058180000000     0.548820000000    -0.401741   
O23      O      0.556790000000     0.040350000000     0.469070000000    -0.401104   
O24      O      0.539920000000     0.079200000000     0.610660000000    -0.403133   
O25      O      0.606100000000     0.032630000000     0.108490000000    -0.401953   
O26      O      0.560240000000     0.027970000000     0.967780000000    -0.400899   
O27      O      0.570740000000     0.103890000000     0.038990000000    -0.401238   
O28      O      0.595440000000     0.955890000000     0.036860000000    -0.401455   
O29      O      0.516240000000     0.942930000000     0.060720000000    -0.403034   
O30      O      0.492490000000     0.090610000000     0.065470000000    -0.403345   
O31      O      0.481330000000     0.015040000000     0.992520000000    -0.401992   
O32      O      0.527600000000     0.017540000000     0.133260000000    -0.400809   
O33      O      0.034980000000     0.478420000000     0.071220000000    -0.403767   
O34      O      0.052870000000     0.510340000000     0.928280000000    -0.402762   
O35      O      0.119720000000     0.484620000000     0.006730000000    -0.402947   
O36      O      0.969230000000     0.503890000000     0.992720000000    -0.404004   
O37      O      0.978330000000     0.584080000000     0.009850000000    -0.402336   
O38      O      0.128280000000     0.564260000000     0.026370000000    -0.403617   
O39      O      0.063850000000     0.590000000000     0.946790000000    -0.405189   
O40      O      0.043810000000     0.558430000000     0.089290000000    -0.40441    
O41      O      0.555140000000     0.451390000000     0.043180000000    -0.401792   
O42      O      0.538200000000     0.598810000000     0.063310000000    -0.402303   
O43      O      0.472070000000     0.518250000000     0.041960000000    -0.403788   
O44      O      0.621860000000     0.532180000000     0.064720000000    -0.403652   
O45      O      0.632980000000     0.547600000000     0.985620000000    -0.402353   
O46      O      0.483770000000     0.528290000000     0.962130000000    -0.402565   
O47      O      0.547260000000     0.611150000000     0.983450000000    -0.403186   
O48      O      0.569860000000     0.464280000000     0.964200000000    -0.402811   


