data_structure

_audit_creation_method RASPA-1.0
_audit_creation_date 2023-5-19
_audit_author_name 'Poobodin Mano'

_cell_length_a    21.6137
_cell_length_b    21.6146
_cell_length_c    21.618
_cell_angle_alpha 89.9998
_cell_angle_beta  89.9998
_cell_angle_gamma 89.9998
_cell_volume      10099.3

_symmetry_cell_setting          triclinic
_symmetry_space_group_name_Hall 'P 1'
_symmetry_space_group_name_H-M  'P 1'
_symmetry_Int_Tables_number     1

_symmetry_equiv_pos_as_xyz 'x,y,z'

loop_
_atom_site_label
_atom_site_type_symbol
_atom_site_fract_x
_atom_site_fract_y
_atom_site_fract_z
_atom_site_charge
C1       C      0.131740000000     0.006200000000     0.509610000000     0.402553   
C2       C      0.886560000000     0.012050000000     0.509600000000     0.403389   
C3       C      0.013060000000     0.131750000000     0.509860000000     0.40301    
C4       C      0.005230000000     0.886500000000     0.509880000000     0.402176   
C5       C      0.009130000000     0.509140000000     0.385840000000     0.404608   
C6       C      0.009150000000     0.509110000000     0.631680000000     0.4043     
C7       C      0.013770000000     0.386240000000     0.509290000000     0.403619   
C8       C      0.004510000000     0.632020000000     0.509320000000     0.403671   
C9       C      0.509150000000     0.009140000000     0.630730000000     0.404226   
C10      C      0.509150000000     0.009130000000     0.384600000000     0.404321   
C11      C      0.632220000000     0.010460000000     0.507790000000     0.404271   
C12      C      0.386070000000     0.007810000000     0.507790000000     0.404382   
C13      C      0.509160000000     0.009130000000     0.130320000000     0.402568   
C14      C      0.509170000000     0.009140000000     0.885080000000     0.402315   
C15      C      0.510510000000     0.131820000000     0.007880000000     0.402304   
C16      C      0.507820000000     0.886450000000     0.007870000000     0.402205   
C17      C      0.009150000000     0.509130000000     0.131680000000     0.405033   
C18      C      0.009180000000     0.509110000000     0.885840000000     0.404394   
C19      C      0.132040000000     0.504420000000     0.009330000000     0.404602   
C20      C      0.886290000000     0.513820000000     0.009310000000     0.404368   
C21      C      0.512180000000     0.386460000000     0.009700000000     0.402662   
C22      C      0.506160000000     0.631810000000     0.009700000000     0.402591   
C23      C      0.386510000000     0.505120000000     0.009970000000     0.402628   
C24      C      0.631820000000     0.513140000000     0.009950000000     0.402819   
C25      C      0.791470000000     0.475210000000     0.047410000000     0.0318468  
C26      C      0.791250000000     0.556540000000     0.974380000000     0.0321751  
C27      C      0.726580000000     0.553860000000     0.971960000000     0.0317968  
C28      C      0.727050000000     0.476710000000     0.049390000000     0.031141   
C29      C      0.227080000000     0.461710000000     0.974410000000     0.0321295  
C30      C      0.226860000000     0.543050000000     0.047430000000     0.0318223  
C31      C      0.291290000000     0.541560000000     0.049410000000     0.0310899  
C32      C      0.291760000000     0.464400000000     0.971990000000     0.0317863  
C33      C      0.543730000000     0.726910000000     0.049060000000     0.0310401  
C34      C      0.468800000000     0.726820000000     0.969500000000     0.0317288  
C35      C      0.467270000000     0.791430000000     0.971010000000     0.0316535  
C36      C      0.546340000000     0.791400000000     0.046460000000     0.0310287  
C37      C      0.471990000000     0.226880000000     0.046470000000     0.0309748  
C38      C      0.551070000000     0.226840000000     0.971020000000     0.0315948  
C39      C      0.549540000000     0.291450000000     0.969510000000     0.0316998  
C40      C      0.474600000000     0.291360000000     0.049070000000     0.0309761  
C41      C      0.475280000000     0.052050000000     0.725640000000     0.0319387  
C42      C      0.543040000000     0.966230000000     0.725640000000     0.0327448  
C43      C      0.545480000000     0.968270000000     0.790170000000     0.0320527  
C44      C      0.472850000000     0.050010000000     0.790180000000     0.031257   
C45      C      0.475320000000     0.966180000000     0.289720000000     0.0327783  
C46      C      0.542990000000     0.052080000000     0.289730000000     0.03198    
C47      C      0.545470000000     0.050000000000     0.225190000000     0.0313719  
C48      C      0.472850000000     0.968260000000     0.225190000000     0.0321521  
C49      C      0.968160000000     0.472940000000     0.791030000000     0.0321462  
C50      C      0.050190000000     0.545270000000     0.791020000000     0.0315224  
C51      C      0.052280000000     0.542730000000     0.726490000000     0.0322148  
C52      C      0.966050000000     0.475480000000     0.726500000000     0.0328476  
C53      C      0.045320000000     0.550130000000     0.291020000000     0.031545   
C54      C      0.972940000000     0.468160000000     0.291020000000     0.0321448  
C55      C      0.975480000000     0.466050000000     0.226490000000     0.0328884  
C56      C      0.042790000000     0.552240000000     0.226490000000     0.0321723  
C57      C      0.226640000000     0.047300000000     0.545410000000     0.0312419  
C58      C      0.226630000000     0.965480000000     0.472890000000     0.0320914  
C59      C      0.291230000000     0.963940000000     0.474800000000     0.0327382  
C60      C      0.291120000000     0.049870000000     0.542400000000     0.0320099  
C61      C      0.791670000000     0.052780000000     0.472880000000     0.0313783  
C62      C      0.791650000000     0.970970000000     0.545410000000     0.0321757  
C63      C      0.727180000000     0.968400000000     0.542400000000     0.0327906  
C64      C      0.727060000000     0.054320000000     0.474780000000     0.0319493  
C65      C      0.964350000000     0.791730000000     0.472090000000     0.0317169  
C66      C      0.041870000000     0.791280000000     0.549150000000     0.0310349  
C67      C      0.043340000000     0.726850000000     0.547190000000     0.0317694  
C68      C      0.961670000000     0.727060000000     0.474530000000     0.032052   
C69      C      0.974950000000     0.291400000000     0.547160000000     0.0323884  
C70      C      0.056610000000     0.291200000000     0.474500000000     0.0313524  
C71      C      0.053940000000     0.226520000000     0.472060000000     0.0310097  
C72      C      0.976420000000     0.226980000000     0.549130000000     0.0316972  
Cu1      Cu     0.009150000000     0.009120000000     0.453050000000     0.835696   
Cu2      Cu     0.009150000000     0.009130000000     0.566210000000     0.84571    
Cu3      Cu     0.066140000000     0.512200000000     0.508720000000     0.847625   
Cu4      Cu     0.952150000000     0.506060000000     0.508730000000     0.848955   
Cu5      Cu     0.509700000000     0.951880000000     0.507660000000     0.850777   
Cu6      Cu     0.508590000000     0.066380000000     0.507660000000     0.849387   
Cu7      Cu     0.565770000000     0.008590000000     0.007710000000     0.840414   
Cu8      Cu     0.452570000000     0.009680000000     0.007710000000     0.840288   
Cu9      Cu     0.006070000000     0.452130000000     0.008730000000     0.846704   
Cu10     Cu     0.012270000000     0.566120000000     0.008720000000     0.847346   
Cu11     Cu     0.509170000000     0.509140000000     0.066340000000     0.846712   
Cu12     Cu     0.509170000000     0.509130000000     0.953110000000     0.839449   
H1       H      0.815530000000     0.442840000000     0.077300000000     0.0361707  
H2       H      0.815230000000     0.588900000000     0.944440000000     0.0365554  
H3       H      0.702310000000     0.585090000000     0.941070000000     0.0369516  
H4       H      0.703340000000     0.444830000000     0.080090000000     0.0371189  
H5       H      0.203110000000     0.429340000000     0.944480000000     0.0363819  
H6       H      0.202800000000     0.575420000000     0.077320000000     0.0361105  
H7       H      0.314990000000     0.573440000000     0.080100000000     0.0371149  
H8       H      0.316030000000     0.433160000000     0.941100000000     0.0368692  
H9       H      0.574300000000     0.703010000000     0.080890000000     0.0375215  
H10      H      0.437990000000     0.702820000000     0.937980000000     0.0371786  
H11      H      0.436000000000     0.815400000000     0.939920000000     0.0373578  
H12      H      0.578030000000     0.815330000000     0.077150000000     0.03752    
H13      H      0.440300000000     0.202940000000     0.077160000000     0.0373502  
H14      H      0.582330000000     0.202870000000     0.939930000000     0.0372531  
H15      H      0.580350000000     0.315460000000     0.937990000000     0.0371541  
H16      H      0.444030000000     0.315260000000     0.080900000000     0.0374556  
H17      H      0.447500000000     0.086240000000     0.701600000000     0.0356278  
H18      H      0.570820000000     0.932040000000     0.701600000000     0.0356602  
H19      H      0.574290000000     0.934940000000     0.814210000000     0.0367302  
H20      H      0.444050000000     0.083350000000     0.814220000000     0.0366731  
H21      H      0.447580000000     0.931960000000     0.313790000000     0.0354176  
H22      H      0.570720000000     0.086300000000     0.313790000000     0.0354255  
H23      H      0.574270000000     0.083340000000     0.201130000000     0.0363356  
H24      H      0.444050000000     0.934920000000     0.201120000000     0.0363339  
H25      H      0.934740000000     0.444270000000     0.815120000000     0.0362053  
H26      H      0.083610000000     0.573940000000     0.815100000000     0.0362161  
H27      H      0.086620000000     0.570300000000     0.702390000000     0.0351737  
H28      H      0.931700000000     0.447920000000     0.702410000000     0.0351543  
H29      H      0.074020000000     0.583540000000     0.315110000000     0.0360206  
H30      H      0.944240000000     0.434760000000     0.315110000000     0.0360732  
H31      H      0.947900000000     0.431730000000     0.202390000000     0.0351394  
H32      H      0.070380000000     0.586560000000     0.202400000000     0.0350775  
H33      H      0.202600000000     0.080550000000     0.574320000000     0.0367086  
H34      H      0.202560000000     0.931990000000     0.444280000000     0.0362896  
H35      H      0.315340000000     0.929910000000     0.446870000000     0.035416   
H36      H      0.315120000000     0.084300000000     0.569930000000     0.0356133  
H37      H      0.815740000000     0.086260000000     0.444260000000     0.0363708  
H38      H      0.815690000000     0.937720000000     0.574320000000     0.0368864  
H39      H      0.703170000000     0.933970000000     0.569930000000     0.0356808  
H40      H      0.702950000000     0.088350000000     0.446850000000     0.0354537  
H41      H      0.932970000000     0.815990000000     0.441350000000     0.0371044  
H42      H      0.073890000000     0.814980000000     0.579690000000     0.0373589  
H43      H      0.075840000000     0.702810000000     0.576950000000     0.0362471  
H44      H      0.929170000000     0.703080000000     0.444750000000     0.0365094  
H45      H      0.942440000000     0.315450000000     0.576920000000     0.0362315  
H46      H      0.089110000000     0.315180000000     0.444720000000     0.0364152  
H47      H      0.085310000000     0.202260000000     0.441320000000     0.0369225  
H48      H      0.944390000000     0.203280000000     0.579660000000     0.0373085  
N1       N      0.823240000000     0.515750000000     0.010640000000    -0.176704   
N2       N      0.694910000000     0.514670000000     0.010340000000    -0.176313   
N3       N      0.195090000000     0.502490000000     0.010670000000    -0.176785   
N4       N      0.323420000000     0.503590000000     0.010360000000    -0.176296   
N5       N      0.506060000000     0.694950000000     0.009510000000    -0.17633    
N6       N      0.507140000000     0.823330000000     0.008410000000    -0.176274   
N7       N      0.511190000000     0.194940000000     0.008420000000    -0.176321   
N8       N      0.512280000000     0.323330000000     0.009520000000    -0.176371   
N9       N      0.509160000000     0.009140000000     0.693790000000    -0.176825   
N10      N      0.509170000000     0.009140000000     0.822030000000    -0.176311   
N11      N      0.509150000000     0.009130000000     0.321560000000    -0.176861   
N12      N      0.509160000000     0.009130000000     0.193360000000    -0.176433   
N13      N      0.009180000000     0.509110000000     0.822830000000    -0.17671    
N14      N      0.009160000000     0.509110000000     0.694690000000    -0.176843   
N15      N      0.009130000000     0.509150000000     0.322830000000    -0.176793   
N16      N      0.009140000000     0.509140000000     0.194690000000    -0.17693    
N17      N      0.194790000000     0.006170000000     0.509390000000    -0.176433   
N18      N      0.323020000000     0.007200000000     0.508290000000    -0.176914   
N19      N      0.823500000000     0.012090000000     0.509390000000    -0.176489   
N20      N      0.695270000000     0.011060000000     0.508280000000    -0.176864   
N21      N      0.003720000000     0.823410000000     0.510270000000    -0.176187   
N22      N      0.002610000000     0.695070000000     0.510620000000    -0.176652   
N23      N      0.015670000000     0.323190000000     0.510590000000    -0.176655   
N24      N      0.014570000000     0.194850000000     0.510250000000    -0.176311   
O1       O      0.102120000000     0.995710000000     0.459200000000    -0.390183   
O2       O      0.916180000000     0.022540000000     0.459190000000    -0.391005   
O3       O      0.022830000000     0.102190000000     0.459250000000    -0.39073    
O4       O      0.995460000000     0.916060000000     0.459270000000    -0.389153   
O5       O      0.017190000000     0.915800000000     0.560140000000    -0.393102   
O6       O      0.001110000000     0.102460000000     0.560130000000    -0.393907   
O7       O      0.915740000000     0.000630000000     0.560050000000    -0.392848   
O8       O      0.102560000000     0.017630000000     0.560050000000    -0.392985   
O9       O      0.059930000000     0.518470000000     0.415130000000    -0.39414    
O10      O      0.060850000000     0.508700000000     0.602410000000    -0.394033   
O11      O      0.063880000000     0.417650000000     0.502490000000    -0.391434   
O12      O      0.056820000000     0.604770000000     0.515280000000    -0.396592   
O13      O      0.954400000000     0.600610000000     0.502520000000    -0.390953   
O14      O      0.961460000000     0.413490000000     0.515270000000    -0.396172   
O15      O      0.957450000000     0.509530000000     0.602420000000    -0.393599   
O16      O      0.958340000000     0.499810000000     0.415140000000    -0.393721   
O17      O      0.511230000000     0.957500000000     0.601450000000    -0.39395    
O18      O      0.508030000000     0.957460000000     0.413870000000    -0.393952   
O19      O      0.603430000000     0.958510000000     0.509280000000    -0.393999   
O20      O      0.415850000000     0.956450000000     0.506120000000    -0.394037   
O21      O      0.414860000000     0.059750000000     0.509280000000    -0.394657   
O22      O      0.602440000000     0.061820000000     0.506110000000    -0.394544   
O23      O      0.510260000000     0.060800000000     0.413870000000    -0.394516   
O24      O      0.507070000000     0.060770000000     0.601440000000    -0.394577   
O25      O      0.559720000000     0.019530000000     0.100930000000    -0.392039   
O26      O      0.559520000000     0.997810000000     0.914490000000    -0.390532   
O27      O      0.560680000000     0.101900000000     0.997040000000    -0.391298   
O28      O      0.558590000000     0.915440000000     0.018470000000    -0.391878   
O29      O      0.457650000000     0.916370000000     0.997030000000    -0.390776   
O30      O      0.459740000000     0.102830000000     0.018480000000    -0.392426   
O31      O      0.458810000000     0.020470000000     0.914490000000    -0.391607   
O32      O      0.458610000000     0.998730000000     0.100930000000    -0.390992   
O33      O      0.009560000000     0.457430000000     0.102430000000    -0.394218   
O34      O      0.999800000000     0.458330000000     0.915140000000    -0.392693   
O35      O      0.100610000000     0.454340000000     0.002500000000    -0.391864   
O36      O      0.913510000000     0.461500000000     0.015300000000    -0.396372   
O37      O      0.917720000000     0.563910000000     0.002480000000    -0.391237   
O38      O      0.104830000000     0.556740000000     0.015310000000    -0.396857   
O39      O      0.018550000000     0.559900000000     0.915130000000    -0.393627   
O40      O      0.008750000000     0.560830000000     0.102420000000    -0.394155   
O41      O      0.501270000000     0.415690000000     0.060240000000    -0.393457   
O42      O      0.517070000000     0.602580000000     0.060240000000    -0.393453   
O43      O      0.415800000000     0.516730000000     0.060310000000    -0.393939   
O44      O      0.602540000000     0.501540000000     0.060300000000    -0.393959   
O45      O      0.602270000000     0.522520000000     0.959270000000    -0.390601   
O46      O      0.416060000000     0.495750000000     0.959270000000    -0.390449   
O47      O      0.496200000000     0.602150000000     0.959190000000    -0.391315   
O48      O      0.522130000000     0.416120000000     0.959190000000    -0.391416   


