data_structure

_audit_creation_method RASPA-1.0
_audit_creation_date 2023-5-23
_audit_author_name 'Poobodin Mano'

_cell_length_a    30.2972
_cell_length_b    30.2972
_cell_length_c    30.4059
_cell_angle_alpha 89.9998
_cell_angle_beta  89.9998
_cell_angle_gamma 89.9998
_cell_volume      27910.2

_symmetry_cell_setting          triclinic
_symmetry_space_group_name_Hall 'P 1'
_symmetry_space_group_name_H-M  'P 1'
_symmetry_Int_Tables_number     1

_symmetry_equiv_pos_as_xyz 'x,y,z'

loop_
_atom_site_label
_atom_site_type_symbol
_atom_site_fract_x
_atom_site_fract_y
_atom_site_fract_z
_atom_site_charge
C1       C      0.084370000000     0.996170000000     0.994470000000     0.405566   
C2       C      0.908310000000     0.996210000000     0.994440000000     0.405683   
C3       C      0.996350000000     0.084220000000     0.994480000000     0.40565    
C4       C      0.996310000000     0.908160000000     0.994420000000     0.405649   
C5       C      0.084140000000     0.996230000000     0.494430000000     0.40563    
C6       C      0.908080000000     0.996280000000     0.494460000000     0.405673   
C7       C      0.996140000000     0.084280000000     0.494410000000     0.405526   
C8       C      0.996090000000     0.908220000000     0.494480000000     0.405719   
C9       C      0.996230000000     0.496140000000     0.906770000000     0.405777   
C10      C      0.996240000000     0.496250000000     0.082180000000     0.405653   
C11      C      0.996250000000     0.408170000000     0.994530000000     0.40567    
C12      C      0.996230000000     0.584220000000     0.994420000000     0.40544    
C13      C      0.996220000000     0.496310000000     0.406770000000     0.405764   
C14      C      0.996210000000     0.496200000000     0.582180000000     0.405499   
C15      C      0.996220000000     0.408230000000     0.494420000000     0.405453   
C16      C      0.996190000000     0.584280000000     0.494520000000     0.405497   
C17      C      0.496360000000     0.996240000000     0.082160000000     0.405732   
C18      C      0.496300000000     0.996210000000     0.906750000000     0.405707   
C19      C      0.584360000000     0.996230000000     0.994430000000     0.405482   
C20      C      0.408310000000     0.996210000000     0.994480000000     0.405703   
C21      C      0.496090000000     0.996210000000     0.582160000000     0.405657   
C22      C      0.496140000000     0.996240000000     0.406750000000     0.405759   
C23      C      0.584130000000     0.996240000000     0.494480000000     0.405615   
C24      C      0.408080000000     0.996210000000     0.494430000000     0.405625   
C25      C      0.506260000000     0.957820000000     0.696020000000    -0.0852359  
C26      C      0.496140000000     0.996200000000     0.719850000000     0.0340955  
C27      C      0.485990000000     0.034580000000     0.696030000000    -0.0851587  
C28      C      0.486750000000     0.034150000000     0.650110000000     0.0701876  
C29      C      0.505450000000     0.958250000000     0.650090000000     0.0701194  
C30      C      0.496190000000     0.996200000000     0.769060000000     0.0340561  
C31      C      0.486090000000     0.957820000000     0.792900000000    -0.0851527  
C32      C      0.486910000000     0.958250000000     0.838830000000     0.0700463  
C33      C      0.505600000000     0.034160000000     0.838800000000     0.0701955  
C34      C      0.506330000000     0.034590000000     0.792880000000    -0.0851823  
C35      C      0.486110000000     0.957860000000     0.292880000000    -0.0852043  
C36      C      0.496260000000     0.996250000000     0.269060000000     0.034058   
C37      C      0.506360000000     0.034630000000     0.292900000000    -0.0851329  
C38      C      0.505530000000     0.034200000000     0.338830000000     0.0701571  
C39      C      0.486850000000     0.958290000000     0.338810000000     0.0701202  
C40      C      0.496300000000     0.996250000000     0.219850000000     0.0340902  
C41      C      0.506450000000     0.957870000000     0.196030000000    -0.0852173  
C42      C      0.505700000000     0.958300000000     0.150110000000     0.0700823  
C43      C      0.486990000000     0.034200000000     0.150090000000     0.0701896  
C44      C      0.486180000000     0.034630000000     0.196020000000    -0.0851521  
C45      C      0.034600000000     0.485980000000     0.792900000000    -0.0851518  
C46      C      0.996220000000     0.496100000000     0.769080000000     0.0340817  
C47      C      0.957830000000     0.506230000000     0.792910000000    -0.0852323  
C48      C      0.958270000000     0.505450000000     0.838830000000     0.0700886  
C49      C      0.034180000000     0.486770000000     0.838830000000     0.0701726  
C50      C      0.996220000000     0.496120000000     0.719870000000     0.0340734  
C51      C      0.034600000000     0.506260000000     0.696040000000    -0.0851773  
C52      C      0.034160000000     0.505500000000     0.650120000000     0.0702117  
C53      C      0.958270000000     0.486800000000     0.650110000000     0.0701721  
C54      C      0.957830000000     0.485990000000     0.696030000000    -0.085273   
C55      C      0.034620000000     0.486220000000     0.292910000000    -0.0851544  
C56      C      0.996230000000     0.496340000000     0.269080000000     0.0340937  
C57      C      0.957850000000     0.506460000000     0.292900000000    -0.0852332  
C58      C      0.958270000000     0.505670000000     0.338830000000     0.0701061  
C59      C      0.034180000000     0.486990000000     0.338830000000     0.0701579  
C60      C      0.996230000000     0.496330000000     0.219870000000     0.0340627  
C61      C      0.034620000000     0.506450000000     0.196040000000    -0.0851618  
C62      C      0.034190000000     0.505640000000     0.150110000000     0.0701817  
C63      C      0.958280000000     0.486940000000     0.150120000000     0.0700584  
C64      C      0.957850000000     0.486180000000     0.196040000000    -0.0852015  
C65      C      0.293790000000     0.034940000000     0.485610000000    -0.0865252  
C66      C      0.270440000000     0.996200000000     0.494400000000     0.034286   
C67      C      0.293790000000     0.957450000000     0.503200000000    -0.0866618  
C68      C      0.339890000000     0.957900000000     0.502530000000     0.0701685  
C69      C      0.339880000000     0.034510000000     0.486290000000     0.0701393  
C70      C      0.221780000000     0.996200000000     0.494410000000     0.0342689  
C71      C      0.198430000000     0.987570000000     0.533060000000    -0.0866305  
C72      C      0.152340000000     0.988250000000     0.532630000000     0.0700501  
C73      C      0.152330000000     0.004160000000     0.456210000000     0.0701756  
C74      C      0.198430000000     0.004830000000     0.455760000000    -0.0866026  
C75      C      0.793780000000     0.987610000000     0.455830000000    -0.0866948  
C76      C      0.770430000000     0.996280000000     0.494480000000     0.0342732  
C77      C      0.793790000000     0.004940000000     0.533120000000    -0.0865814  
C78      C      0.839890000000     0.004270000000     0.532670000000     0.0701791  
C79      C      0.839870000000     0.988290000000     0.456270000000     0.0700789  
C80      C      0.721780000000     0.996270000000     0.494490000000     0.0342522  
C81      C      0.698430000000     0.957520000000     0.485670000000    -0.0865984  
C82      C      0.652340000000     0.957950000000     0.486360000000     0.0700925  
C83      C      0.652320000000     0.034550000000     0.502630000000     0.0702006  
C84      C      0.698420000000     0.035000000000     0.503310000000    -0.086526   
C85      C      0.004760000000     0.793920000000     0.455860000000    -0.0866024  
C86      C      0.996130000000     0.770580000000     0.494520000000     0.0342588  
C87      C      0.987480000000     0.793940000000     0.533170000000    -0.0866626  
C88      C      0.988140000000     0.840040000000     0.532710000000     0.0700541  
C89      C      0.004060000000     0.840010000000     0.456290000000     0.0701633  
C90      C      0.996150000000     0.721920000000     0.494540000000     0.0342811  
C91      C      0.957410000000     0.698550000000     0.503350000000    -0.0866675  
C92      C      0.957870000000     0.652460000000     0.502670000000     0.0701403  
C93      C      0.034480000000     0.652490000000     0.486420000000     0.0701961  
C94      C      0.034910000000     0.698580000000     0.485740000000    -0.0865829  
C95      C      0.957480000000     0.293940000000     0.485560000000    -0.0865727  
C96      C      0.996220000000     0.270580000000     0.494370000000     0.0342402  
C97      C      0.034970000000     0.293930000000     0.503180000000    -0.0865036  
C98      C      0.034530000000     0.340030000000     0.502510000000     0.0701281  
C99      C      0.957920000000     0.340030000000     0.486250000000     0.0701024  
C100     C      0.996210000000     0.221930000000     0.494370000000     0.0342572  
C101     C      0.987540000000     0.198570000000     0.455730000000    -0.0866595  
C102     C      0.988200000000     0.152470000000     0.456190000000     0.0700732  
C103     C      0.004150000000     0.152490000000     0.532600000000     0.0701509  
C104     C      0.004850000000     0.198580000000     0.533030000000    -0.0865628  
C105     C      0.198660000000     0.004840000000     0.955840000000    -0.0865732  
C106     C      0.222010000000     0.996180000000     0.994490000000     0.0341983  
C107     C      0.198650000000     0.987510000000     0.033130000000    -0.0865906  
C108     C      0.152560000000     0.988180000000     0.032680000000     0.0701365  
C109     C      0.152570000000     0.004150000000     0.956280000000     0.0701619  
C110     C      0.270670000000     0.996190000000     0.994500000000     0.0342334  
C111     C      0.294010000000     0.034930000000     0.985680000000    -0.0865478  
C112     C      0.340110000000     0.034500000000     0.986360000000     0.0701638  
C113     C      0.340120000000     0.957900000000     0.002640000000     0.070177   
C114     C      0.294030000000     0.957450000000     0.003320000000    -0.0865576  
C115     C      0.794020000000     0.987610000000     0.955760000000    -0.0866848  
C116     C      0.770660000000     0.996240000000     0.994410000000     0.0342065  
C117     C      0.794010000000     0.004870000000     0.033070000000    -0.0865425  
C118     C      0.840100000000     0.004180000000     0.032630000000     0.0702183  
C119     C      0.840110000000     0.988280000000     0.956220000000     0.070095   
C120     C      0.722000000000     0.996240000000     0.994410000000     0.0342385  
C121     C      0.698650000000     0.034990000000     0.003210000000    -0.086479   
C122     C      0.652560000000     0.034550000000     0.002530000000     0.0702179  
C123     C      0.652560000000     0.957940000000     0.986290000000     0.070089   
C124     C      0.698660000000     0.957500000000     0.985610000000    -0.0866285  
C125     C      0.957490000000     0.698510000000     0.003190000000    -0.0865246  
C126     C      0.996230000000     0.721860000000     0.994370000000     0.034198   
C127     C      0.034970000000     0.698500000000     0.985560000000    -0.086508   
C128     C      0.034530000000     0.652410000000     0.986250000000     0.0701763  
C129     C      0.957920000000     0.652420000000     0.002520000000     0.0700933  
C130     C      0.996240000000     0.770520000000     0.994380000000     0.0342149  
C131     C      0.004910000000     0.793880000000     0.955740000000    -0.0865902  
C132     C      0.004250000000     0.839970000000     0.956200000000     0.070163   
C133     C      0.988300000000     0.839960000000     0.032610000000     0.0700846  
C134     C      0.987600000000     0.793860000000     0.033040000000    -0.0866006  
C135     C      0.987680000000     0.198530000000     0.955870000000    -0.0866702  
C136     C      0.996310000000     0.221870000000     0.994530000000     0.0342169  
C137     C      0.004960000000     0.198500000000     0.033170000000    -0.086529   
C138     C      0.004300000000     0.152410000000     0.032710000000     0.0702407  
C139     C      0.988380000000     0.152430000000     0.956300000000     0.0700546  
C140     C      0.996290000000     0.270520000000     0.994550000000     0.0342121  
C141     C      0.035030000000     0.293890000000     0.003350000000    -0.0864888  
C142     C      0.034570000000     0.339980000000     0.002670000000     0.0702466  
C143     C      0.957970000000     0.339960000000     0.986420000000     0.0701298  
C144     C      0.957540000000     0.293860000000     0.985740000000    -0.0866192  
Cu1      Cu     0.996340000000     0.996200000000     0.953910000000     0.846078   
Cu2      Cu     0.996330000000     0.996180000000     0.034990000000     0.846253   
Cu3      Cu     0.996100000000     0.996240000000     0.453900000000     0.846108   
Cu4      Cu     0.996120000000     0.996270000000     0.534980000000     0.846021   
Cu5      Cu     0.036920000000     0.496190000000     0.994470000000     0.846023   
Cu6      Cu     0.955560000000     0.496180000000     0.994470000000     0.846002   
Cu7      Cu     0.036890000000     0.496260000000     0.494470000000     0.846159   
Cu8      Cu     0.955530000000     0.496250000000     0.494470000000     0.845887   
Cu9      Cu     0.496340000000     0.955540000000     0.994460000000     0.845991   
Cu10     Cu     0.496330000000     0.036910000000     0.994450000000     0.84607    
Cu11     Cu     0.496110000000     0.955540000000     0.494450000000     0.84601    
Cu12     Cu     0.496100000000     0.036900000000     0.494460000000     0.846144   
H1       H      0.476850000000     0.064900000000     0.712490000000     0.0504802  
H2       H      0.478690000000     0.064620000000     0.633210000000     0.026254   
H3       H      0.513490000000     0.927780000000     0.633180000000     0.0262518  
H4       H      0.515420000000     0.927500000000     0.712460000000     0.0504852  
H5       H      0.476930000000     0.927490000000     0.776460000000     0.0504471  
H6       H      0.478890000000     0.927780000000     0.855740000000     0.0262603  
H7       H      0.513640000000     0.064630000000     0.855700000000     0.0262479  
H8       H      0.515460000000     0.064900000000     0.776420000000     0.0505046  
H9       H      0.515510000000     0.064950000000     0.276460000000     0.0504871  
H10      H      0.513550000000     0.064670000000     0.355740000000     0.0262619  
H11      H      0.478800000000     0.927820000000     0.355700000000     0.0262493  
H12      H      0.476980000000     0.927540000000     0.276420000000     0.0504786  
H13      H      0.515590000000     0.927550000000     0.212490000000     0.0504781  
H14      H      0.513750000000     0.927830000000     0.133210000000     0.0262703  
H15      H      0.478950000000     0.064670000000     0.133180000000     0.0262642  
H16      H      0.477020000000     0.064950000000     0.212460000000     0.0504889  
H17      H      0.927510000000     0.515370000000     0.776460000000     0.0504869  
H18      H      0.927800000000     0.513490000000     0.855740000000     0.0262637  
H19      H      0.064650000000     0.478730000000     0.855730000000     0.0262526  
H20      H      0.064920000000     0.476840000000     0.776450000000     0.0504851  
H21      H      0.064920000000     0.515400000000     0.712490000000     0.0504919  
H22      H      0.064630000000     0.513560000000     0.633210000000     0.0262568  
H23      H      0.927800000000     0.478760000000     0.633200000000     0.0262447  
H24      H      0.927520000000     0.476830000000     0.712480000000     0.0505036  
H25      H      0.927530000000     0.515600000000     0.276450000000     0.0504885  
H26      H      0.927800000000     0.513710000000     0.355740000000     0.0262657  
H27      H      0.064650000000     0.478950000000     0.355740000000     0.0262703  
H28      H      0.064940000000     0.477080000000     0.276460000000     0.0504922  
H29      H      0.064930000000     0.515610000000     0.212480000000     0.050507   
H30      H      0.064650000000     0.513680000000     0.133200000000     0.0262583  
H31      H      0.927820000000     0.478890000000     0.133210000000     0.0262807  
H32      H      0.927530000000     0.477040000000     0.212490000000     0.0504829  
H33      H      0.276500000000     0.926910000000     0.510050000000     0.05267    
H34      H      0.356830000000     0.927110000000     0.509280000000     0.0264395  
H35      H      0.356820000000     0.065290000000     0.479550000000     0.026464   
H36      H      0.276500000000     0.065490000000     0.478760000000     0.0526445  
H37      H      0.215730000000     0.980840000000     0.563530000000     0.0527015  
H38      H      0.135400000000     0.981650000000     0.563340000000     0.0265031  
H39      H      0.135390000000     0.010770000000     0.425500000000     0.0265132  
H40      H      0.215710000000     0.011550000000     0.425290000000     0.0527559  
H41      H      0.776510000000     0.011690000000     0.563590000000     0.0527306  
H42      H      0.856840000000     0.010900000000     0.563370000000     0.0264984  
H43      H      0.856810000000     0.981660000000     0.425560000000     0.026481   
H44      H      0.776490000000     0.980870000000     0.425370000000     0.0527323  
H45      H      0.715730000000     0.926980000000     0.478810000000     0.052639   
H46      H      0.635400000000     0.927170000000     0.479600000000     0.0264613  
H47      H      0.635370000000     0.065330000000     0.509390000000     0.0264567  
H48      H      0.715700000000     0.065550000000     0.510180000000     0.0526381  
H49      H      0.980760000000     0.776660000000     0.563640000000     0.0527231  
H50      H      0.981520000000     0.856990000000     0.563410000000     0.0264821  
H51      H      0.010670000000     0.856950000000     0.425580000000     0.0265043  
H52      H      0.011490000000     0.776620000000     0.425400000000     0.0527465  
H53      H      0.926870000000     0.715830000000     0.510210000000     0.0526742  
H54      H      0.927100000000     0.635510000000     0.509420000000     0.0264485  
H55      H      0.065270000000     0.635560000000     0.479670000000     0.0264553  
H56      H      0.065440000000     0.715880000000     0.478880000000     0.0526742  
H57      H      0.065510000000     0.276640000000     0.510040000000     0.0526488  
H58      H      0.065310000000     0.356970000000     0.509270000000     0.0264718  
H59      H      0.927140000000     0.356980000000     0.479500000000     0.0264717  
H60      H      0.926930000000     0.276650000000     0.478690000000     0.0526274  
H61      H      0.980810000000     0.215850000000     0.425260000000     0.0527265  
H62      H      0.981560000000     0.135520000000     0.425490000000     0.0264964  
H63      H      0.010770000000     0.135550000000     0.563310000000     0.0265273  
H64      H      0.011600000000     0.215880000000     0.563490000000     0.0527346  
H65      H      0.215940000000     0.980760000000     0.063600000000     0.0527031  
H66      H      0.135610000000     0.981550000000     0.063380000000     0.0264851  
H67      H      0.135630000000     0.010790000000     0.925570000000     0.0265144  
H68      H      0.215960000000     0.011590000000     0.925380000000     0.0527318  
H69      H      0.276720000000     0.065470000000     0.978820000000     0.0526518  
H70      H      0.357040000000     0.065280000000     0.979600000000     0.0264494  
H71      H      0.357070000000     0.927120000000     0.009390000000     0.0264678  
H72      H      0.276740000000     0.926900000000     0.010180000000     0.0526403  
H73      H      0.776720000000     0.011590000000     0.063540000000     0.0527384  
H74      H      0.857040000000     0.010790000000     0.063340000000     0.026495   
H75      H      0.857060000000     0.981670000000     0.925510000000     0.0264737  
H76      H      0.776730000000     0.980890000000     0.925290000000     0.0527172  
H77      H      0.715940000000     0.065540000000     0.010060000000     0.0526458  
H78      H      0.635610000000     0.065330000000     0.009280000000     0.0264706  
H79      H      0.635620000000     0.927150000000     0.979560000000     0.0264563  
H80      H      0.715940000000     0.926950000000     0.978760000000     0.0526425  
H81      H      0.065520000000     0.715790000000     0.978700000000     0.0526231  
H82      H      0.065310000000     0.635460000000     0.979500000000     0.0264547  
H83      H      0.927140000000     0.635480000000     0.009280000000     0.0264845  
H84      H      0.926950000000     0.715810000000     0.010050000000     0.0526356  
H85      H      0.011640000000     0.776590000000     0.925270000000     0.0527282  
H86      H      0.010890000000     0.856920000000     0.925500000000     0.0264953  
H87      H      0.981680000000     0.856890000000     0.063310000000     0.026479   
H88      H      0.980850000000     0.776570000000     0.063500000000     0.0527175  
H89      H      0.011680000000     0.215780000000     0.063650000000     0.0527312  
H90      H      0.010920000000     0.135450000000     0.063410000000     0.0265096  
H91      H      0.981770000000     0.135500000000     0.925590000000     0.0264919  
H92      H      0.980950000000     0.215820000000     0.925410000000     0.052735   
H93      H      0.065580000000     0.276610000000     0.010210000000     0.0526587  
H94      H      0.065350000000     0.356930000000     0.009420000000     0.0264634  
H95      H      0.927180000000     0.356890000000     0.979670000000     0.0264465  
H96      H      0.927000000000     0.276560000000     0.978890000000     0.0526431  
N1       N      0.496090000000     0.996200000000     0.627290000000    -0.1927     
N2       N      0.496270000000     0.996210000000     0.861630000000    -0.192732   
N3       N      0.496170000000     0.996240000000     0.361630000000    -0.192749   
N4       N      0.496350000000     0.996250000000     0.127280000000    -0.192732   
N5       N      0.996230000000     0.496120000000     0.861650000000    -0.192739   
N6       N      0.996210000000     0.496170000000     0.627300000000    -0.192741   
N7       N      0.996220000000     0.496330000000     0.361650000000    -0.192735   
N8       N      0.996240000000     0.496280000000     0.127300000000    -0.192715   
N9       N      0.362790000000     0.996200000000     0.494420000000    -0.19265    
N10      N      0.129430000000     0.996210000000     0.494420000000    -0.192648   
N11      N      0.862780000000     0.996280000000     0.494470000000    -0.192636   
N12      N      0.629430000000     0.996250000000     0.494490000000    -0.192604   
N13      N      0.996090000000     0.862930000000     0.494490000000    -0.192673   
N14      N      0.996180000000     0.629570000000     0.494540000000    -0.192624   
N15      N      0.996220000000     0.362930000000     0.494390000000    -0.192552   
N16      N      0.996160000000     0.129580000000     0.494400000000    -0.192593   
N17      N      0.129660000000     0.996170000000     0.994480000000    -0.192695   
N18      N      0.363020000000     0.996200000000     0.994490000000    -0.192684   
N19      N      0.863010000000     0.996220000000     0.994430000000    -0.192678   
N20      N      0.629660000000     0.996240000000     0.994420000000    -0.192601   
N21      N      0.996230000000     0.629510000000     0.994390000000    -0.192621   
N22      N      0.996290000000     0.862870000000     0.994410000000    -0.192696   
N23      N      0.996350000000     0.129520000000     0.994500000000    -0.192661   
N24      N      0.996260000000     0.362870000000     0.994540000000    -0.192653   
O1       O      0.063230000000     0.998330000000     0.957890000000    -0.397457   
O2       O      0.929450000000     0.994080000000     0.957870000000    -0.397611   
O3       O      0.994220000000     0.063100000000     0.957900000000    -0.397485   
O4       O      0.998460000000     0.929310000000     0.957860000000    -0.39764    
O5       O      0.994170000000     0.929290000000     0.031010000000    -0.397451   
O6       O      0.998480000000     0.063070000000     0.031050000000    -0.397486   
O7       O      0.929440000000     0.998330000000     0.031020000000    -0.397551   
O8       O      0.063220000000     0.994030000000     0.031040000000    -0.397442   
O9       O      0.063000000000     0.998360000000     0.457850000000    -0.397439   
O10      O      0.929210000000     0.994120000000     0.457880000000    -0.397544   
O11      O      0.993980000000     0.063130000000     0.457840000000    -0.397479   
O12      O      0.998220000000     0.929350000000     0.457890000000    -0.39752    
O13      O      0.993960000000     0.929370000000     0.531040000000    -0.397556   
O14      O      0.998270000000     0.063160000000     0.531000000000    -0.397441   
O15      O      0.929220000000     0.998420000000     0.531030000000    -0.397526   
O16      O      0.063010000000     0.994110000000     0.531010000000    -0.397493   
O17      O      0.032930000000     0.493780000000     0.927820000000    -0.397416   
O18      O      0.032930000000     0.498610000000     0.061120000000    -0.39738    
O19      O      0.032940000000     0.429310000000     0.996820000000    -0.397547   
O20      O      0.032930000000     0.563080000000     0.992120000000    -0.397352   
O21      O      0.959530000000     0.563080000000     0.996750000000    -0.397366   
O22      O      0.959550000000     0.429300000000     0.992200000000    -0.397565   
O23      O      0.959540000000     0.493850000000     0.061120000000    -0.397384   
O24      O      0.959540000000     0.498520000000     0.927830000000    -0.397586   
O25      O      0.032910000000     0.493920000000     0.427830000000    -0.397519   
O26      O      0.032910000000     0.498590000000     0.561120000000    -0.397344   
O27      O      0.032920000000     0.429370000000     0.496740000000    -0.39736    
O28      O      0.032900000000     0.563150000000     0.492200000000    -0.397345   
O29      O      0.959500000000     0.563130000000     0.496820000000    -0.397497   
O30      O      0.959520000000     0.429360000000     0.492110000000    -0.397425   
O31      O      0.959510000000     0.493830000000     0.561120000000    -0.39737    
O32      O      0.959520000000     0.498670000000     0.427820000000    -0.39746    
O33      O      0.498740000000     0.959540000000     0.061110000000    -0.397433   
O34      O      0.493940000000     0.959520000000     0.927820000000    -0.397535   
O35      O      0.563230000000     0.959530000000     0.992130000000    -0.397467   
O36      O      0.429450000000     0.959520000000     0.996800000000    -0.39755    
O37      O      0.429440000000     0.032910000000     0.992160000000    -0.397458   
O38      O      0.563220000000     0.032930000000     0.996740000000    -0.397398   
O39      O      0.498680000000     0.032910000000     0.927800000000    -0.39741    
O40      O      0.493970000000     0.032930000000     0.061100000000    -0.397412   
O41      O      0.498470000000     0.959520000000     0.561100000000    -0.397491   
O42      O      0.493760000000     0.959540000000     0.427800000000    -0.397491   
O43      O      0.563000000000     0.959540000000     0.492160000000    -0.397496   
O44      O      0.429230000000     0.959520000000     0.496740000000    -0.397549   
O45      O      0.429220000000     0.032910000000     0.492130000000    -0.397448   
O46      O      0.562990000000     0.032930000000     0.496800000000    -0.397451   
O47      O      0.498500000000     0.032930000000     0.427810000000    -0.397463   
O48      O      0.493710000000     0.032910000000     0.561110000000    -0.397385   


