data_structure

_audit_creation_method RASPA-1.0
_audit_creation_date 2023-6-4
_audit_author_name 'Poobodin Mano'

_cell_length_a    20.4731
_cell_length_b    20.9511
_cell_length_c    29.8594
_cell_angle_alpha 89.9989
_cell_angle_beta  89.9989
_cell_angle_gamma 94.7474
_cell_volume      12763.8

_symmetry_cell_setting          triclinic
_symmetry_space_group_name_Hall 'P 1'
_symmetry_space_group_name_H-M  'P 1'
_symmetry_Int_Tables_number     1

_symmetry_equiv_pos_as_xyz 'x,y,z'

loop_
_atom_site_label
_atom_site_type_symbol
_atom_site_fract_x
_atom_site_fract_y
_atom_site_fract_z
_atom_site_charge
C1       C      0.079610000000     0.892940000000     0.994850000000     0.396085   
C2       C      0.916190000000     0.081180000000     0.989410000000     0.403477   
C3       C      0.100420000000     0.073010000000     0.007100000000     0.417677   
C4       C      0.894910000000     0.911730000000     0.976250000000     0.423827   
C5       C      0.081890000000     0.892780000000     0.514780000000     0.396368   
C6       C      0.915900000000     0.080120000000     0.508230000000     0.397425   
C7       C      0.101110000000     0.071490000000     0.506090000000     0.419061   
C8       C      0.897140000000     0.902430000000     0.518660000000     0.419892   
C9       C      0.493400000000     0.483620000000     0.920120000000     0.47433    
C10      C      0.509930000000     0.496070000000     0.090720000000     0.473848   
C11      C      0.590900000000     0.408540000000     0.002890000000     0.456617   
C12      C      0.413280000000     0.571780000000     0.004920000000     0.456034   
C13      C      0.506370000000     0.498070000000     0.421320000000     0.47473    
C14      C      0.492370000000     0.473340000000     0.591520000000     0.472539   
C15      C      0.589670000000     0.407750000000     0.504620000000     0.455407   
C16      C      0.406170000000     0.564020000000     0.510020000000     0.460213   
C17      C      0.430700000000     0.475450000000     0.659530000000     0.100626   
C18      C      0.545700000000     0.465740000000     0.660500000000     0.0769394  
C19      C      0.429320000000     0.474170000000     0.706500000000    -0.0994196  
C20      C      0.440890000000     0.437460000000     0.806190000000    -0.0872548  
C21      C      0.545900000000     0.465170000000     0.707150000000    -0.0918539  
C22      C      0.487880000000     0.473220000000     0.780380000000     0.0330795  
C23      C      0.487350000000     0.469450000000     0.730720000000     0.0399241  
C24      C      0.443330000000     0.441330000000     0.852970000000     0.0729481  
C25      C      0.536400000000     0.516410000000     0.849010000000     0.0739044  
C26      C      0.535820000000     0.513130000000     0.802370000000    -0.0877229  
C27      C      0.565100000000     0.530080000000     0.352800000000     0.103061   
C28      C      0.456270000000     0.481000000000     0.350790000000     0.074356   
C29      C      0.566450000000     0.531110000000     0.305710000000    -0.0991434  
C30      C      0.549160000000     0.550890000000     0.205240000000    -0.086172   
C31      C      0.456130000000     0.482720000000     0.304230000000    -0.091374   
C32      C      0.513560000000     0.503710000000     0.230800000000     0.0328254  
C33      C      0.512040000000     0.506510000000     0.280810000000     0.0403117  
C34      C      0.548590000000     0.547150000000     0.158380000000     0.072968   
C35      C      0.478110000000     0.451680000000     0.161370000000     0.073929   
C36      C      0.478720000000     0.453200000000     0.208010000000    -0.0869852  
C37      C      0.293930000000     0.592490000000     0.497820000000     0.101562   
C38      C      0.375120000000     0.668230000000     0.527520000000     0.0701773  
C39      C      0.247800000000     0.638920000000     0.499360000000    -0.0983055  
C40      C      0.181330000000     0.763670000000     0.477320000000    -0.0828417  
C41      C      0.329460000000     0.714600000000     0.530360000000    -0.0885318  
C42      C      0.216390000000     0.750580000000     0.516100000000     0.0297749  
C43      C      0.264980000000     0.700620000000     0.515770000000     0.0391718  
C44      C      0.137020000000     0.811410000000     0.477510000000     0.0668608  
C45      C      0.158480000000     0.832230000000     0.554190000000     0.0663821  
C46      C      0.204610000000     0.785880000000     0.554810000000    -0.0823012  
C47      C      0.813860000000     0.840510000000     0.561790000000     0.105878   
C48      C      0.820800000000     0.830660000000     0.482330000000     0.0739026  
C49      C      0.763300000000     0.791860000000     0.562500000000    -0.103587   
C50      C      0.698390000000     0.656900000000     0.551120000000    -0.0844972  
C51      C      0.770320000000     0.782870000000     0.482320000000    -0.0938745  
C52      C      0.691860000000     0.709460000000     0.522990000000     0.0309308  
C53      C      0.742120000000     0.762640000000     0.522700000000     0.0437828  
C54      C      0.653340000000     0.604020000000     0.547550000000     0.0753458  
C55      C      0.595860000000     0.655380000000     0.490410000000     0.0715337  
C56      C      0.639700000000     0.709040000000     0.492750000000    -0.0841879  
C57      C      0.833100000000     0.136420000000     0.468730000000     0.099906   
C58      C      0.863470000000     0.164640000000     0.543250000000     0.0666795  
C59      C      0.788030000000     0.183800000000     0.468620000000    -0.0965252  
C60      C      0.666780000000     0.255950000000     0.490650000000    -0.0847436  
C61      C      0.819550000000     0.212910000000     0.543500000000    -0.0863067  
C62      C      0.730820000000     0.271800000000     0.506040000000     0.0313676  
C63      C      0.780570000000     0.222780000000     0.506030000000     0.03755    
C64      C      0.620460000000     0.301800000000     0.490610000000     0.069675   
C65      C      0.699250000000     0.380080000000     0.519420000000     0.0694291  
C66      C      0.746510000000     0.334850000000     0.520810000000    -0.0844217  
C67      C      0.390360000000     0.331280000000     0.533960000000     0.0592574  
C68      C      0.357950000000     0.353920000000     0.459530000000     0.0789224  
C69      C      0.350210000000     0.274900000000     0.534390000000    -0.0794394  
C70      C      0.224980000000     0.195530000000     0.539660000000    -0.0901212  
C71      C      0.315020000000     0.299200000000     0.459000000000    -0.0864621  
C72      C      0.259250000000     0.206570000000     0.499570000000     0.0380389  
C73      C      0.310540000000     0.259440000000     0.496950000000     0.0316175  
C74      C      0.173280000000     0.149050000000     0.541320000000     0.0751576  
C75      C      0.187390000000     0.124940000000     0.464290000000     0.0743877  
C76      C      0.240820000000     0.170090000000     0.461720000000    -0.0893767  
C77      C      0.124860000000     0.801950000000     0.031730000000     0.0992519  
C78      C      0.168160000000     0.841670000000     0.962570000000     0.0666171  
C79      C      0.172160000000     0.756540000000     0.032860000000    -0.0960412  
C80      C      0.253430000000     0.641670000000     0.011130000000    -0.0844705  
C81      C      0.216430000000     0.797620000000     0.963510000000    -0.0861238  
C82      C      0.270250000000     0.706220000000     0.000430000000     0.0311685  
C83      C      0.219190000000     0.754150000000     0.998950000000     0.0372587  
C84      C      0.301590000000     0.597440000000     0.012170000000     0.0697488  
C85      C      0.383710000000     0.679240000000     0.993760000000     0.0691204  
C86      C      0.336520000000     0.724430000000     0.991470000000    -0.0840639  
C87      C      0.781050000000     0.883520000000     0.980450000000     0.106252   
C88      C      0.856820000000     0.809260000000     0.956950000000     0.0791344  
C89      C      0.731560000000     0.833410000000     0.983540000000    -0.0991218  
C90      C      0.653360000000     0.713510000000     0.016910000000    -0.0828027  
C91      C      0.809160000000     0.758940000000     0.960050000000    -0.0921653  
C92      C      0.696950000000     0.715410000000     0.980580000000     0.0301683  
C93      C      0.746130000000     0.770250000000     0.974420000000     0.0424597  
C94      C      0.610840000000     0.659030000000     0.023730000000     0.0710007  
C95      C      0.654330000000     0.608450000000     0.960530000000     0.0697601  
C96      C      0.696410000000     0.662300000000     0.951830000000    -0.082724   
C97      C      0.808420000000     0.107330000000     0.009490000000     0.0956272  
C98      C      0.876800000000     0.178150000000     0.964170000000     0.0700675  
C99      C      0.761210000000     0.153020000000     0.011470000000    -0.0928559  
C100     C      0.657250000000     0.249710000000     0.997490000000    -0.0840542  
C101     C      0.831140000000     0.224540000000     0.966000000000    -0.0858443  
C102     C      0.725190000000     0.265200000000     0.994670000000     0.031354   
C103     C      0.772990000000     0.213720000000     0.990910000000     0.0362499  
C104     C      0.613650000000     0.298090000000     0.000460000000     0.069401   
C105     C      0.701730000000     0.378250000000     0.998150000000     0.0687253  
C106     C      0.746810000000     0.330930000000     0.995230000000    -0.0832507  
C107     C      0.174560000000     0.139340000000     0.055120000000     0.104425   
C108     C      0.180640000000     0.145500000000     0.975500000000     0.0740998  
C109     C      0.224850000000     0.188570000000     0.058270000000    -0.101939   
C110     C      0.297390000000     0.322170000000     0.048110000000    -0.0846109  
C111     C      0.230140000000     0.193950000000     0.977910000000    -0.0936366  
C112     C      0.304250000000     0.268400000000     0.021130000000     0.0303118  
C113     C      0.252580000000     0.215950000000     0.019430000000     0.0430943  
C114     C      0.342940000000     0.374930000000     0.044050000000     0.073999   
C115     C      0.401160000000     0.321410000000     0.988490000000     0.070365   
C116     C      0.357620000000     0.267660000000     0.991870000000    -0.0832823  
Cu1      Cu     0.008680000000     0.994640000000     0.951290000000     0.848666   
Cu2      Cu     0.989740000000     0.983680000000     0.032660000000     0.854205   
Cu3      Cu     0.997570000000     0.982280000000     0.470880000000     0.85268    
Cu4      Cu     0.001310000000     0.991360000000     0.553070000000     0.848715   
Cu5      Cu     0.550970000000     0.539140000000     0.002140000000     1.14143    
Cu6      Cu     0.453880000000     0.442140000000     0.008610000000     1.18161    
Cu7      Cu     0.545020000000     0.534950000000     0.511990000000     1.14761    
Cu8      Cu     0.452690000000     0.438480000000     0.501140000000     1.16272    
H1       H      0.406500000000     0.412430000000     0.871800000000     0.0253082  
H2       H      0.591960000000     0.462640000000     0.643170000000     0.0173336  
H3       H      0.572450000000     0.542320000000     0.783630000000     0.0517673  
H4       H      0.591810000000     0.461670000000     0.724670000000     0.0522161  
H5       H      0.403120000000     0.405910000000     0.790360000000     0.0506036  
H6       H      0.383940000000     0.480480000000     0.724040000000     0.0563368  
H7       H      0.574490000000     0.548050000000     0.864490000000     0.024343   
H8       H      0.316890000000     0.443830000000     0.622860000000     0.0371765  
H9       H      0.576240000000     0.584860000000     0.139870000000     0.0243775  
H10      H      0.411360000000     0.461660000000     0.366820000000     0.0233989  
H11      H      0.452120000000     0.414360000000     0.225940000000     0.0507553  
H12      H      0.411820000000     0.465250000000     0.286820000000     0.0511207  
H13      H      0.576380000000     0.591240000000     0.221090000000     0.0502728  
H14      H      0.610920000000     0.549200000000     0.288690000000     0.0558638  
H15      H      0.449940000000     0.411790000000     0.145480000000     0.0255986  
H16      H      0.636600000000     0.622870000000     0.388950000000     0.0377505  
H17      H      0.111810000000     0.819970000000     0.446430000000     0.0271361  
H18      H      0.424460000000     0.682280000000     0.539040000000     0.0270146  
H19      H      0.230360000000     0.777220000000     0.585620000000     0.051142   
H20      H      0.345150000000     0.761840000000     0.543040000000     0.0525166  
H21      H      0.188970000000     0.737860000000     0.446570000000     0.0507581  
H22      H      0.198180000000     0.626800000000     0.487660000000     0.0567084  
H23      H      0.150890000000     0.858080000000     0.584960000000     0.0269017  
H24      H      0.276490000000     0.519120000000     0.429070000000     0.036484   
H25      H      0.658020000000     0.562510000000     0.568480000000     0.0173344  
H26      H      0.841960000000     0.843560000000     0.449950000000     0.0260577  
H27      H      0.633540000000     0.749360000000     0.470850000000     0.0495508  
H28      H      0.754760000000     0.760570000000     0.450900000000     0.0529092  
H29      H      0.738860000000     0.656020000000     0.574440000000     0.0515343  
H30      H      0.740100000000     0.777070000000     0.593910000000     0.0580237  
H31      H      0.555620000000     0.654070000000     0.466870000000     0.015899   
H32      H      0.795630000000     0.927650000000     0.620070000000     0.0385228  
H33      H      0.571580000000     0.286680000000     0.478720000000     0.0273219  
H34      H      0.892040000000     0.159200000000     0.573390000000     0.0265144  
H35      H      0.795410000000     0.349520000000     0.532750000000     0.0511101  
H36      H      0.815240000000     0.241520000000     0.573410000000     0.0511801  
H37      H      0.652060000000     0.207840000000     0.479200000000     0.0510553  
H38      H      0.758360000000     0.190070000000     0.439110000000     0.056558   
H39      H      0.713810000000     0.428240000000     0.530950000000     0.0257096  
H40      H      0.787690000000     0.036480000000     0.425320000000     0.0382186  
H41      H      0.147490000000     0.142610000000     0.572940000000     0.0254109  
H42      H      0.361220000000     0.385270000000     0.430750000000     0.0152757  
H43      H      0.266880000000     0.176790000000     0.430290000000     0.051708   
H44      H      0.284020000000     0.289660000000     0.429990000000     0.0504822  
H45      H      0.236270000000     0.223960000000     0.569370000000     0.0509749  
H46      H      0.347950000000     0.245260000000     0.564170000000     0.0459     
H47      H      0.173640000000     0.097810000000     0.434330000000     0.0256609  
H48      H      0.385170000000     0.362490000000     0.614340000000     0.0147361  
H49      H      0.285780000000     0.548120000000     0.020260000000     0.0258337  
H50      H      0.169080000000     0.874240000000     0.934310000000     0.0267552  
H51      H      0.352180000000     0.773730000000     0.983390000000     0.0508725  
H52      H      0.251150000000     0.797270000000     0.936150000000     0.0514892  
H53      H      0.202950000000     0.625020000000     0.018060000000     0.0505302  
H54      H      0.172380000000     0.723130000000     0.060580000000     0.0558561  
H55      H      0.434220000000     0.695980000000     0.986830000000     0.0261702  
H56      H      0.013880000000     0.754530000000     0.062150000000     0.037942   
H57      H      0.576170000000     0.657700000000     0.051110000000     0.0160963  
H58      H      0.906240000000     0.798670000000     0.948030000000     0.0182313  
H59      H      0.728210000000     0.662130000000     0.922870000000     0.0490198  
H60      H      0.822880000000     0.711060000000     0.953300000000     0.052468   
H61      H      0.652810000000     0.753070000000     0.040210000000     0.0500812  
H62      H      0.682020000000     0.843760000000     0.991880000000     0.0560715  
H63      H      0.654380000000     0.567380000000     0.938620000000     0.0172308  
H64      H      0.750710000000     0.990750000000     0.939700000000     0.0406795  
H65      H      0.561790000000     0.282850000000     0.002240000000     0.0256148  
H66      H      0.921740000000     0.189410000000     0.945510000000     0.0218988  
H67      H      0.798590000000     0.346180000000     0.993950000000     0.0500746  
H68      H      0.841730000000     0.268880000000     0.947810000000     0.0506122  
H69      H      0.637200000000     0.200280000000     0.996570000000     0.0495848  
H70      H      0.716110000000     0.141260000000     0.029690000000     0.0525428  
H71      H      0.721100000000     0.427990000000     0.998390000000     0.0257423  
H72      H      0.741970000000     0.029930000000     0.064810000000     0.0324274  
H73      H      0.338120000000     0.417140000000     0.064240000000     0.0151321  
H74      H      0.165300000000     0.131100000000     0.941970000000     0.0265929  
H75      H      0.364570000000     0.226520000000     0.970930000000     0.0495933  
H76      H      0.249900000000     0.214920000000     0.947070000000     0.0529276  
H77      H      0.256210000000     0.324240000000     0.070690000000     0.0500916  
H78      H      0.242700000000     0.205080000000     0.090800000000     0.05693    
H79      H      0.441460000000     0.321670000000     0.965070000000     0.017466   
H80      H      0.093640000000     0.140050000000     0.120900000000     0.0400938  
N1       N      0.488640000000     0.469200000000     0.637060000000    -0.212714   
N2       N      0.490830000000     0.480470000000     0.874220000000    -0.20592    
N3       N      0.510070000000     0.503780000000     0.375370000000    -0.208984   
N4       N      0.512520000000     0.498370000000     0.136640000000    -0.205795   
N5       N      0.358220000000     0.607230000000     0.511710000000    -0.203531   
N6       N      0.125330000000     0.845550000000     0.515660000000    -0.188209   
N7       N      0.844030000000     0.858540000000     0.521560000000    -0.201014   
N8       N      0.604010000000     0.604330000000     0.517210000000    -0.264743   
N9       N      0.871270000000     0.126630000000     0.506240000000    -0.191746   
N10      N      0.636400000000     0.363670000000     0.504690000000    -0.199933   
N11      N      0.393800000000     0.368570000000     0.496860000000    -0.263594   
N12      N      0.153920000000     0.114990000000     0.503760000000    -0.198415   
N13      N      0.123240000000     0.845450000000     0.996680000000    -0.191333   
N14      N      0.366500000000     0.615930000000     0.003740000000    -0.199537   
N15      N      0.843270000000     0.869510000000     0.968980000000    -0.205115   
N16      N      0.612490000000     0.607920000000     0.995810000000    -0.259461   
N17      N      0.867280000000     0.122080000000     0.987770000000    -0.19463    
N18      N      0.635380000000     0.362130000000     0.000650000000    -0.199441   
N19      N      0.151750000000     0.118470000000     0.013400000000    -0.199614   
N20      N      0.392810000000     0.373630000000     0.014100000000    -0.265821   
O1       O      0.069750000000     0.921760000000     0.957580000000    -0.38789    
O2       O      0.946160000000     0.066650000000     0.953370000000    -0.389417   
O3       O      0.083490000000     0.057440000000     0.967010000000    -0.411592   
O4       O      0.930970000000     0.930890000000     0.943160000000    -0.407875   
O5       O      0.911540000000     0.924190000000     0.016800000000    -0.406016   
O6       O      0.068480000000     0.047580000000     0.040330000000    -0.401182   
O7       O      0.929410000000     0.055230000000     0.026910000000    -0.392852   
O8       O      0.050580000000     0.910500000000     0.030460000000    -0.3868     
O9       O      0.058510000000     0.910270000000     0.477140000000    -0.391754   
O10      O      0.936140000000     0.054550000000     0.472230000000    -0.388184   
O11      O      0.076240000000     0.046450000000     0.470130000000    -0.406102   
O12      O      0.919840000000     0.919150000000     0.479980000000    -0.410143   
O13      O      0.924870000000     0.925440000000     0.554080000000    -0.407334   
O14      O      0.076760000000     0.056400000000     0.544480000000    -0.411977   
O15      O      0.937680000000     0.062120000000     0.546350000000    -0.38724    
O16      O      0.065130000000     0.920060000000     0.551280000000    -0.386262   
O17      O      0.536320000000     0.521580000000     0.939170000000    -0.47592    
O18      O      0.546460000000     0.534980000000     0.067170000000    -0.472873   
O19      O      0.609580000000     0.468300000000     0.002200000000    -0.449935   
O20      O      0.474040000000     0.589930000000     0.000660000000    -0.457398   
O21      O      0.396300000000     0.512270000000     0.009850000000    -0.462584   
O22      O      0.529870000000     0.391720000000     0.005210000000    -0.469984   
O23      O      0.470300000000     0.455000000000     0.071520000000    -0.483078   
O24      O      0.453560000000     0.448410000000     0.943870000000    -0.475777   
O25      O      0.546180000000     0.530290000000     0.446810000000    -0.472848   
O26      O      0.530690000000     0.517410000000     0.574490000000    -0.472669   
O27      O      0.604830000000     0.466330000000     0.514390000000    -0.454578   
O28      O      0.466600000000     0.583570000000     0.513610000000    -0.462047   
O29      O      0.391310000000     0.504350000000     0.505250000000    -0.462041   
O30      O      0.530170000000     0.390080000000     0.495350000000    -0.462418   
O31      O      0.459130000000     0.433640000000     0.566020000000    -0.490147   
O32      O      0.462040000000     0.460140000000     0.438820000000    -0.479175   
S1       S      0.359380000000     0.496330000000     0.631450000000    -0.0510711  
S2       S      0.638440000000     0.558910000000     0.379960000000    -0.0385659  
S3       S      0.265560000000     0.517800000000     0.474350000000    -0.038054   
S4       S      0.833100000000     0.877080000000     0.614120000000    -0.0413121  
S5       S      0.832680000000     0.088110000000     0.420150000000    -0.0409347  
S6       S      0.431920000000     0.360120000000     0.581870000000     0.0712069  
S7       S      0.065910000000     0.795750000000     0.075080000000    -0.0410117  
S8       S      0.757590000000     0.963930000000     0.981100000000    -0.0544363  
S9       S      0.787340000000     0.028580000000     0.031150000000    -0.0270505  
S10      S      0.144700000000     0.106930000000     0.106570000000    -0.0408747  


