data_structure

_audit_creation_method RASPA-1.0
_audit_creation_date 2023-6-4
_audit_author_name 'Poobodin Mano'

_cell_length_a    20.4359
_cell_length_b    21.0419
_cell_length_c    29.9081
_cell_angle_alpha 89.9989
_cell_angle_beta  89.9989
_cell_angle_gamma 94.7652
_cell_volume      12816.3

_symmetry_cell_setting          triclinic
_symmetry_space_group_name_Hall 'P 1'
_symmetry_space_group_name_H-M  'P 1'
_symmetry_Int_Tables_number     1

_symmetry_equiv_pos_as_xyz 'x,y,z'

loop_
_atom_site_label
_atom_site_type_symbol
_atom_site_fract_x
_atom_site_fract_y
_atom_site_fract_z
_atom_site_charge
C1       C      0.080440000000     0.893670000000     0.993320000000     0.399978   
C2       C      0.895030000000     0.061320000000     0.987880000000     0.393439   
C3       C      0.079120000000     0.074310000000     0.997950000000     0.415452   
C4       C      0.903720000000     0.879880000000     0.979120000000     0.421933   
C5       C      0.089770000000     0.899640000000     0.504870000000     0.397464   
C6       C      0.917380000000     0.080690000000     0.497470000000     0.397621   
C7       C      0.102900000000     0.079300000000     0.497150000000     0.41732    
C8       C      0.905170000000     0.902510000000     0.504770000000     0.417309   
C9       C      0.478510000000     0.477030000000     0.922390000000     0.467431   
C10      C      0.504260000000     0.485100000000     0.092550000000     0.470928   
C11      C      0.570810000000     0.391370000000     0.999440000000     0.4579     
C12      C      0.405140000000     0.565650000000     0.010460000000     0.453107   
C13      C      0.512660000000     0.496010000000     0.422940000000     0.470828   
C14      C      0.495950000000     0.485440000000     0.593740000000     0.467621   
C15      C      0.586340000000     0.402700000000     0.509030000000     0.45351    
C16      C      0.422170000000     0.578860000000     0.508260000000     0.449909   
C17      C      0.473940000000     0.418090000000     0.852640000000     0.100952   
C18      C      0.481240000000     0.531640000000     0.853960000000     0.0760018  
C19      C      0.473340000000     0.419220000000     0.805630000000    -0.0977439  
C20      C      0.439220000000     0.440260000000     0.706670000000    -0.087273   
C21      C      0.482070000000     0.533920000000     0.807410000000    -0.0909105  
C22      C      0.482330000000     0.479350000000     0.733140000000     0.0330425  
C23      C      0.477980000000     0.477420000000     0.782690000000     0.0396003  
C24      C      0.444180000000     0.443110000000     0.660050000000     0.0723511  
C25      C      0.534420000000     0.521200000000     0.665320000000     0.0726322  
C26      C      0.530260000000     0.520170000000     0.711910000000    -0.0871568  
C27      C      0.571280000000     0.522010000000     0.352940000000     0.101773   
C28      C      0.461570000000     0.474350000000     0.353340000000     0.0731117  
C29      C      0.570990000000     0.520970000000     0.305830000000    -0.0967995  
C30      C      0.549950000000     0.539440000000     0.205930000000    -0.0859322  
C31      C      0.460000000000     0.474050000000     0.306830000000    -0.0898394  
C32      C      0.514790000000     0.493060000000     0.232280000000     0.0333454  
C33      C      0.515270000000     0.496560000000     0.282230000000     0.0393476  
C34      C      0.547310000000     0.535400000000     0.159190000000     0.072798   
C35      C      0.475730000000     0.441140000000     0.163790000000     0.0743609  
C36      C      0.478390000000     0.442950000000     0.210340000000    -0.087323   
C37      C      0.146720000000     0.818090000000     0.544910000000     0.0976984  
C38      C      0.169390000000     0.841420000000     0.468500000000     0.0666022  
C39      C      0.194210000000     0.772940000000     0.544430000000    -0.0939383  
C40      C      0.267460000000     0.653710000000     0.525250000000    -0.0852497  
C41      C      0.217280000000     0.797290000000     0.467620000000    -0.0857878  
C42      C      0.280680000000     0.713900000000     0.505460000000     0.031785   
C43      C      0.230350000000     0.762160000000     0.505800000000     0.0367382  
C44      C      0.315120000000     0.609290000000     0.525170000000     0.0703777  
C45      C      0.389370000000     0.681970000000     0.486580000000     0.0672464  
C46      C      0.342400000000     0.727180000000     0.485370000000    -0.0848982  
C47      C      0.600160000000     0.656490000000     0.526900000000     0.0587828  
C48      C      0.683590000000     0.590770000000     0.504320000000     0.0771407  
C49      C      0.644070000000     0.710400000000     0.526130000000    -0.079183   
C50      C      0.774020000000     0.793270000000     0.549410000000    -0.0904371  
C51      C      0.729290000000     0.643150000000     0.503220000000    -0.0858104  
C52      C      0.756110000000     0.758570000000     0.511090000000     0.0385918  
C53      C      0.709130000000     0.703250000000     0.513990000000     0.0311817  
C54      C      0.823750000000     0.842110000000     0.546630000000     0.0743404  
C55      C      0.834430000000     0.824270000000     0.468480000000     0.0745815  
C56      C      0.785750000000     0.774510000000     0.470240000000    -0.0906267  
C57      C      0.836350000000     0.141250000000     0.458090000000     0.0971784  
C58      C      0.859180000000     0.158050000000     0.535230000000     0.0664393  
C59      C      0.789780000000     0.187280000000     0.459950000000    -0.0936183  
C60      C      0.666730000000     0.257110000000     0.479920000000    -0.085228   
C61      C      0.813560000000     0.204200000000     0.537510000000    -0.0858126  
C62      C      0.727340000000     0.267490000000     0.501950000000     0.0321067  
C63      C      0.777660000000     0.219270000000     0.499760000000     0.0367286  
C64      C      0.620040000000     0.302340000000     0.482610000000     0.0679632  
C65      C      0.691940000000     0.369370000000     0.527230000000     0.0708012  
C66      C      0.739480000000     0.324820000000     0.525690000000    -0.0852401  
C67      C      0.407780000000     0.323650000000     0.511540000000     0.0581925  
C68      C      0.328470000000     0.390000000000     0.483330000000     0.0767481  
C69      C      0.364130000000     0.270010000000     0.507850000000    -0.0796772  
C70      C      0.234970000000     0.193990000000     0.533080000000    -0.090435   
C71      C      0.282910000000     0.337630000000     0.479060000000    -0.0866363  
C72      C      0.251950000000     0.223500000000     0.492560000000     0.0381821  
C73      C      0.300820000000     0.277530000000     0.492120000000     0.0309848  
C74      C      0.185100000000     0.145330000000     0.533950000000     0.0743555  
C75      C      0.171570000000     0.153210000000     0.455150000000     0.0738409  
C76      C      0.220430000000     0.203000000000     0.453240000000    -0.09034    
C77      C      0.105610000000     0.785150000000     0.982680000000     0.0948824  
C78      C      0.183820000000     0.861210000000     0.014950000000     0.0708248  
C79      C      0.150840000000     0.737890000000     0.985980000000    -0.0906902  
C80      C      0.246090000000     0.638260000000     0.013400000000    -0.0833028  
C81      C      0.229910000000     0.815380000000     0.018230000000    -0.0847757  
C82      C      0.264750000000     0.703210000000     0.005600000000     0.031641   
C83      C      0.214660000000     0.752610000000     0.003090000000     0.0362032  
C84      C      0.293470000000     0.593240000000     0.015350000000     0.0685266  
C85      C      0.378430000000     0.674180000000     0.002360000000     0.0688563  
C86      C      0.332370000000     0.720380000000     0.000170000000    -0.0837748  
C87      C      0.878800000000     0.771250000000     0.996880000000     0.102798   
C88      C      0.815200000000     0.823160000000     0.943700000000     0.0776116  
C89      C      0.831810000000     0.719500000000     0.998180000000    -0.0973368  
C90      C      0.726180000000     0.612560000000     0.997070000000    -0.0812101  
C91      C      0.768960000000     0.771270000000     0.942630000000    -0.0912548  
C92      C      0.717330000000     0.673450000000     0.980080000000     0.0311279  
C93      C      0.773870000000     0.721100000000     0.973000000000     0.0422071  
C94      C      0.671730000000     0.570910000000     0.006480000000     0.0710078  
C95      C      0.600160000000     0.645690000000     0.980140000000     0.0705865  
C96      C      0.652940000000     0.690060000000     0.972460000000    -0.0818999  
C97      C      0.676760000000     0.357000000000     0.974010000000     0.0986934  
C98      C      0.599560000000     0.285170000000     0.011450000000     0.0695928  
C99      C      0.721320000000     0.309010000000     0.972030000000    -0.0946109  
C100     C      0.764780000000     0.160260000000     0.026850000000    -0.081872   
C101     C      0.643610000000     0.237160000000     0.010290000000    -0.0869398  
C102     C      0.753950000000     0.197830000000     0.989200000000     0.0298674  
C103     C      0.705660000000     0.248480000000     0.990530000000     0.0378829  
C104     C      0.811850000000     0.115040000000     0.025750000000     0.0659274  
C105     C      0.836770000000     0.140670000000     0.950400000000     0.0657809  
C106     C      0.790880000000     0.187180000000     0.950640000000    -0.0817328  
C107     C      0.338220000000     0.365500000000     0.976440000000     0.0579059  
C108     C      0.359690000000     0.336160000000     0.051490000000     0.0779451  
C109     C      0.286970000000     0.318290000000     0.973270000000    -0.0770078  
C110     C      0.212620000000     0.191060000000     0.967640000000    -0.089451   
C111     C      0.309100000000     0.288010000000     0.049880000000    -0.0859138  
C112     C      0.220850000000     0.225870000000     0.007300000000     0.0377935  
C113     C      0.272270000000     0.278690000000     0.010410000000     0.0309047  
C114     C      0.164490000000     0.140930000000     0.965090000000     0.0739036  
C115     C      0.134000000000     0.157300000000     0.040640000000     0.0733829  
C116     C      0.180780000000     0.208830000000     0.044040000000    -0.0888988  
Cu1      Cu     0.993760000000     0.981460000000     0.948610000000     0.845626   
Cu2      Cu     0.984340000000     0.975010000000     0.030580000000     0.846122   
Cu3      Cu     0.004000000000     0.987280000000     0.459940000000     0.849167   
Cu4      Cu     0.004420000000     0.994170000000     0.542100000000     0.851741   
Cu5      Cu     0.540120000000     0.527190000000     0.003170000000     1.14172    
Cu6      Cu     0.441570000000     0.434400000000     0.011910000000     1.15938    
Cu7      Cu     0.554690000000     0.534880000000     0.511580000000     1.14525    
Cu8      Cu     0.453970000000     0.446590000000     0.505200000000     1.14925    
H1       H      0.409610000000     0.412300000000     0.640770000000     0.0256312  
H2       H      0.484110000000     0.576650000000     0.871890000000     0.02105    
H3       H      0.565060000000     0.550600000000     0.731220000000     0.0521332  
H4       H      0.485830000000     0.579870000000     0.790860000000     0.0526079  
H5       H      0.401320000000     0.408250000000     0.721860000000     0.0512356  
H6       H      0.472990000000     0.375100000000     0.786790000000     0.056535   
H7       H      0.572420000000     0.553420000000     0.650340000000     0.0259132  
H8       H      0.574590000000     0.572560000000     0.140100000000     0.0262982  
H9       H      0.416860000000     0.456250000000     0.370240000000     0.0260807  
H10      H      0.452040000000     0.404720000000     0.228860000000     0.0506758  
H11      H      0.414920000000     0.456390000000     0.290380000000     0.0516977  
H12      H      0.578310000000     0.579520000000     0.221090000000     0.0512887  
H13      H      0.615030000000     0.537400000000     0.287530000000     0.0557859  
H14      H      0.446350000000     0.401630000000     0.148580000000     0.0239229  
H15      H      0.302610000000     0.563480000000     0.540960000000     0.0242299  
H16      H      0.162080000000     0.867170000000     0.437730000000     0.0276111  
H17      H      0.354680000000     0.772530000000     0.469020000000     0.0504994  
H18      H      0.243410000000     0.790190000000     0.436750000000     0.0514811  
H19      H      0.220110000000     0.640550000000     0.540370000000     0.0515011  
H20      H      0.203360000000     0.745980000000     0.574430000000     0.0557531  
H21      H      0.435170000000     0.693370000000     0.468970000000     0.0175636  
H22      H      0.837750000000     0.867570000000     0.577140000000     0.0262532  
H23      H      0.697890000000     0.544470000000     0.494570000000     0.0188001  
H24      H      0.771960000000     0.748090000000     0.440100000000     0.0543635  
H25      H      0.779500000000     0.637160000000     0.493480000000     0.0528683  
H26      H      0.751280000000     0.781340000000     0.581400000000     0.0532614  
H27      H      0.627790000000     0.756940000000     0.533710000000     0.0482389  
H28      H      0.857240000000     0.835020000000     0.436320000000     0.0265135  
H29      H      0.575540000000     0.293530000000     0.463110000000     0.0172654  
H30      H      0.884920000000     0.148870000000     0.565960000000     0.0281236  
H31      H      0.785950000000     0.335800000000     0.542540000000     0.0511611  
H32      H      0.805720000000     0.227210000000     0.569230000000     0.0512281  
H33      H      0.655100000000     0.214060000000     0.460670000000     0.0506959  
H34      H      0.762920000000     0.198650000000     0.430070000000     0.0556171  
H35      H      0.703590000000     0.412990000000     0.545960000000     0.0238493  
H36      H      0.172340000000     0.123890000000     0.566090000000     0.0261133  
H37      H      0.315740000000     0.436790000000     0.473370000000     0.0163622  
H38      H      0.233270000000     0.225470000000     0.421460000000     0.0529418  
H39      H      0.233980000000     0.344020000000     0.466840000000     0.052186   
H40      H      0.258940000000     0.209580000000     0.563990000000     0.053172   
H41      H      0.378680000000     0.223580000000     0.517560000000     0.04814    
H42      H      0.147420000000     0.138450000000     0.424130000000     0.0262444  
H43      H      0.276070000000     0.543900000000     0.021360000000     0.0271051  
H44      H      0.197870000000     0.909010000000     0.027090000000     0.0203282  
H45      H      0.350050000000     0.769350000000     0.993410000000     0.0501027  
H46      H      0.277150000000     0.829260000000     0.033220000000     0.0510862  
H47      H      0.195030000000     0.621930000000     0.018580000000     0.0505711  
H48      H      0.136030000000     0.689920000000     0.974760000000     0.0545098  
H49      H      0.429720000000     0.690310000000     0.997570000000     0.0244057  
H50      H      0.678980000000     0.524910000000     0.020760000000     0.0200152  
H51      H      0.807430000000     0.863780000000     0.922540000000     0.0227005  
H52      H      0.642650000000     0.737000000000     0.961110000000     0.0491283  
H53      H      0.728230000000     0.772280000000     0.919610000000     0.0521525  
H54      H      0.774300000000     0.596470000000     0.002990000000     0.0497314  
H55      H      0.840420000000     0.679850000000     0.019760000000     0.0559371  
H56      H      0.551150000000     0.657950000000     0.972460000000     0.0168363  
H57      H      0.818660000000     0.088060000000     0.056030000000     0.0277993  
H58      H      0.552580000000     0.273310000000     0.027560000000     0.0268854  
H59      H      0.784080000000     0.214360000000     0.920490000000     0.0507411  
H60      H      0.628640000000     0.190950000000     0.024600000000     0.0518576  
H61      H      0.738040000000     0.166710000000     0.057560000000     0.0506384  
H62      H      0.768820000000     0.318890000000     0.956100000000     0.0558799  
H63      H      0.863900000000     0.134500000000     0.919770000000     0.0272735  
H64      H      0.159800000000     0.115040000000     0.933750000000     0.0260955  
H65      H      0.389380000000     0.342660000000     0.081280000000     0.014639   
H66      H      0.185110000000     0.235260000000     0.075120000000     0.0517422  
H67      H      0.300360000000     0.257290000000     0.078680000000     0.0501784  
H68      H      0.243780000000     0.201600000000     0.938840000000     0.0519677  
H69      H      0.259370000000     0.312600000000     0.942400000000     0.0467546  
H70      H      0.103690000000     0.145310000000     0.069680000000     0.0260463  
N1       N      0.475790000000     0.474650000000     0.876520000000    -0.209275   
N2       N      0.491530000000     0.483190000000     0.639520000000    -0.204847   
N3       N      0.516170000000     0.498040000000     0.376800000000    -0.206533   
N4       N      0.509510000000     0.487190000000     0.138310000000    -0.205171   
N5       N      0.134530000000     0.853220000000     0.506700000000    -0.19028    
N6       N      0.376560000000     0.623990000000     0.507410000000    -0.200712   
N7       N      0.620670000000     0.598830000000     0.515990000000    -0.260168   
N8       N      0.854290000000     0.856650000000     0.506600000000    -0.197455   
N9       N      0.871440000000     0.126170000000     0.496150000000    -0.189883   
N10      N      0.631710000000     0.357430000000     0.507090000000    -0.201624   
N11      N      0.388900000000     0.381740000000     0.500050000000    -0.260597   
N12      N      0.153340000000     0.125610000000     0.495350000000    -0.197502   
N13      N      0.123530000000     0.847050000000     0.995650000000    -0.19285    
N14      N      0.359360000000     0.610800000000     0.009710000000    -0.198978   
N15      N      0.865780000000     0.824930000000     0.973620000000    -0.203317   
N16      N      0.610370000000     0.587450000000     0.996950000000    -0.25853    
N17      N      0.615760000000     0.345450000000     0.994650000000    -0.201298   
N18      N      0.847950000000     0.105180000000     0.987850000000    -0.187065   
N19      N      0.372720000000     0.373280000000     0.015000000000    -0.261812   
N20      N      0.125800000000     0.124050000000     0.001350000000    -0.197138   
O1       O      0.058810000000     0.911470000000     0.955170000000    -0.382252   
O2       O      0.925930000000     0.048950000000     0.951660000000    -0.383814   
O3       O      0.066150000000     0.049710000000     0.959480000000    -0.409373   
O4       O      0.921070000000     0.912780000000     0.944680000000    -0.409638   
O5       O      0.923120000000     0.896690000000     0.018520000000    -0.402928   
O6       O      0.048700000000     0.052710000000     0.033000000000    -0.403332   
O7       O      0.908990000000     0.033170000000     0.024480000000    -0.388647   
O8       O      0.060480000000     0.918040000000     0.029650000000    -0.389087   
O9       O      0.070860000000     0.920170000000     0.466760000000    -0.389057   
O10      O      0.937230000000     0.054920000000     0.461460000000    -0.385816   
O11      O      0.077590000000     0.056470000000     0.460790000000    -0.406998   
O12      O      0.930300000000     0.918950000000     0.466820000000    -0.407421   
O13      O      0.927960000000     0.928020000000     0.541040000000    -0.407308   
O14      O      0.080750000000     0.059730000000     0.535250000000    -0.407485   
O15      O      0.940610000000     0.063740000000     0.535300000000    -0.39021    
O16      O      0.067840000000     0.923690000000     0.540880000000    -0.387146   
O17      O      0.521330000000     0.516040000000     0.940550000000    -0.467915   
O18      O      0.540080000000     0.523390000000     0.068160000000    -0.471831   
O19      O      0.589070000000     0.450590000000     0.997190000000    -0.458662   
O20      O      0.466070000000     0.581940000000     0.004510000000    -0.456161   
O21      O      0.386980000000     0.506770000000     0.016040000000    -0.457521   
O22      O      0.510450000000     0.375220000000     0.007150000000    -0.457586   
O23      O      0.462490000000     0.445170000000     0.074340000000    -0.479955   
O24      O      0.438700000000     0.442210000000     0.947160000000    -0.486712   
O25      O      0.552280000000     0.530690000000     0.446990000000    -0.470065   
O26      O      0.542210000000     0.519680000000     0.574950000000    -0.471732   
O27      O      0.606890000000     0.461420000000     0.510600000000    -0.460294   
O28      O      0.484300000000     0.593670000000     0.512860000000    -0.471997   
O29      O      0.401870000000     0.520090000000     0.505370000000    -0.459739   
O30      O      0.523950000000     0.387990000000     0.509630000000    -0.476401   
O31      O      0.453730000000     0.453550000000     0.569740000000    -0.470554   
O32      O      0.468400000000     0.459580000000     0.441980000000    -0.477111   
S1       S      0.483080000000     0.351360000000     0.876160000000    -0.0292378  
S2       S      0.638860000000     0.546620000000     0.376280000000    -0.0168064  
S3       S      0.105690000000     0.822300000000     0.589980000000    -0.0169011  
S4       S      0.516490000000     0.660390000000     0.536800000000     0.0769065  
S5       S      0.843430000000     0.106870000000     0.411050000000    -0.0161972  
S6       S      0.488710000000     0.319440000000     0.528840000000     0.0780948  
S7       S      0.024150000000     0.760480000000     0.965880000000    -0.0146338  
S8       S      0.958300000000     0.761340000000     0.018460000000    -0.0125285  
S9       S      0.697940000000     0.421520000000     0.947950000000    -0.0167288  
S10      S      0.364180000000     0.413450000000     0.930990000000     0.084617   


