data_structure

_audit_creation_method RASPA-1.0
_audit_creation_date 2023-6-4
_audit_author_name 'Poobodin Mano'

_cell_length_a    19.5118
_cell_length_b    21.8091
_cell_length_c    29.7526
_cell_angle_alpha 89.9989
_cell_angle_beta  89.9989
_cell_angle_gamma 94.7439
_cell_volume      12617.4

_symmetry_cell_setting          triclinic
_symmetry_space_group_name_Hall 'P 1'
_symmetry_space_group_name_H-M  'P 1'
_symmetry_Int_Tables_number     1

_symmetry_equiv_pos_as_xyz 'x,y,z'

loop_
_atom_site_label
_atom_site_type_symbol
_atom_site_fract_x
_atom_site_fract_y
_atom_site_fract_z
_atom_site_charge
C1       C      0.114210000000     0.863780000000     0.002300000000     0.399706   
C2       C      0.958570000000     0.057390000000     0.004510000000     0.40151    
C3       C      0.149160000000     0.034540000000     0.003900000000     0.424047   
C4       C      0.922160000000     0.885480000000     0.002200000000     0.417339   
C5       C      0.087340000000     0.882440000000     0.495510000000     0.396622   
C6       C      0.930380000000     0.075340000000     0.500070000000     0.401412   
C7       C      0.121510000000     0.055020000000     0.499920000000     0.417326   
C8       C      0.894240000000     0.906250000000     0.494350000000     0.420132   
C9       C      0.532100000000     0.467140000000     0.918200000000     0.481413   
C10      C      0.533640000000     0.462550000000     0.089630000000     0.482294   
C11      C      0.626820000000     0.380790000000     0.004220000000     0.469031   
C12      C      0.439550000000     0.535430000000     0.005700000000     0.462809   
C13      C      0.509920000000     0.477610000000     0.420540000000     0.466759   
C14      C      0.516850000000     0.501880000000     0.590140000000     0.479915   
C15      C      0.609880000000     0.408170000000     0.507830000000     0.460337   
C16      C      0.408380000000     0.549990000000     0.501510000000     0.470549   
C17      C      0.467240000000     0.523130000000     0.661770000000     0.0693723  
C18      C      0.579960000000     0.489800000000     0.656210000000     0.0846127  
C19      C      0.468160000000     0.514130000000     0.708430000000    -0.0670663  
C20      C      0.475880000000     0.449550000000     0.800880000000    -0.0859381  
C21      C      0.583310000000     0.482970000000     0.702770000000    -0.0803401  
C22      C      0.528120000000     0.485330000000     0.778540000000     0.0431286  
C23      C      0.526130000000     0.493200000000     0.729160000000     0.0367988  
C24      C      0.478480000000     0.443020000000     0.847600000000     0.0815092  
C25      C      0.582100000000     0.507950000000     0.850420000000     0.0830586  
C26      C      0.581870000000     0.514310000000     0.803750000000    -0.0863219  
C27      C      0.450020000000     0.459740000000     0.349130000000     0.0526164  
C28      C      0.571120000000     0.483320000000     0.352350000000     0.0714561  
C29      C      0.454460000000     0.454070000000     0.302070000000    -0.0665712  
C30      C      0.482080000000     0.419530000000     0.204730000000    -0.0861152  
C31      C      0.576320000000     0.478910000000     0.305870000000    -0.0793267  
C32      C      0.522160000000     0.463250000000     0.230000000000     0.0421786  
C33      C      0.517690000000     0.464390000000     0.279980000000     0.030994   
C34      C      0.486630000000     0.419870000000     0.157840000000     0.0833983  
C35      C      0.569730000000     0.505470000000     0.160180000000     0.0795935  
C36      C      0.566260000000     0.506580000000     0.207030000000    -0.087147   
C37      C      0.288330000000     0.578410000000     0.504530000000     0.0708683  
C38      C      0.381520000000     0.653310000000     0.490730000000     0.0839347  
C39      C      0.242700000000     0.625860000000     0.503990000000    -0.067988   
C40      C      0.183380000000     0.753030000000     0.534180000000    -0.0804761  
C41      C      0.336530000000     0.700190000000     0.488460000000    -0.0797651  
C42      C      0.217990000000     0.737270000000     0.495130000000     0.0373331  
C43      C      0.266310000000     0.687110000000     0.495720000000     0.0377121  
C44      C      0.140230000000     0.801650000000     0.533680000000     0.0723317  
C45      C      0.161570000000     0.817860000000     0.456170000000     0.0705908  
C46      C      0.206690000000     0.770570000000     0.455840000000    -0.0815962  
C47      C      0.793910000000     0.856080000000     0.530040000000     0.0598915  
C48      C      0.819930000000     0.836980000000     0.453250000000     0.0750401  
C49      C      0.745680000000     0.805310000000     0.529940000000    -0.068862   
C50      C      0.641190000000     0.697950000000     0.462340000000    -0.0831173  
C51      C      0.770650000000     0.787520000000     0.451990000000    -0.0820892  
C52      C      0.694360000000     0.711240000000     0.493190000000     0.040716   
C53      C      0.736210000000     0.769620000000     0.491330000000     0.0349424  
C54      C      0.602680000000     0.641660000000     0.465210000000     0.0791061  
C55      C      0.670080000000     0.611760000000     0.526780000000     0.0855431  
C56      C      0.709240000000     0.667660000000     0.525510000000    -0.0808352  
C57      C      0.725870000000     0.376190000000     0.491820000000     0.0544124  
C58      C      0.638520000000     0.306280000000     0.522780000000     0.0712643  
C59      C      0.770710000000     0.328300000000     0.490720000000    -0.0690907  
C60      C      0.812180000000     0.185440000000     0.543390000000    -0.0790869  
C61      C      0.683070000000     0.258910000000     0.522920000000    -0.0796458  
C62      C      0.797590000000     0.218590000000     0.504660000000     0.0379635  
C63      C      0.749830000000     0.269200000000     0.506200000000     0.033161   
C64      C      0.857790000000     0.138770000000     0.541440000000     0.0767617  
C65      C      0.873130000000     0.154830000000     0.463340000000     0.0729685  
C66      C      0.829360000000     0.203000000000     0.464400000000    -0.0811307  
C67      C      0.381130000000     0.332760000000     0.554940000000     0.0601746  
C68      C      0.404810000000     0.327510000000     0.477090000000     0.0685537  
C69      C      0.335640000000     0.280150000000     0.551510000000    -0.064416   
C70      C      0.265750000000     0.154100000000     0.542940000000    -0.0867404  
C71      C      0.364640000000     0.272400000000     0.473320000000    -0.0673109  
C72      C      0.279020000000     0.193670000000     0.506280000000     0.0449471  
C73      C      0.327010000000     0.249370000000     0.510400000000     0.0315812  
C74      C      0.213620000000     0.106910000000     0.540050000000     0.0795747  
C75      C      0.193450000000     0.132330000000     0.463870000000     0.0787316  
C76      C      0.243150000000     0.181420000000     0.466110000000    -0.0866446  
C77      C      0.324950000000     0.567290000000     0.022920000000     0.0559657  
C78      C      0.410450000000     0.636620000000     0.989370000000     0.0716248  
C79      C      0.278150000000     0.613520000000     0.021340000000    -0.0667248  
C80      C      0.213730000000     0.737220000000     0.041730000000    -0.0822798  
C81      C      0.364340000000     0.682640000000     0.986980000000    -0.0797274  
C82      C      0.248070000000     0.721230000000     0.002560000000     0.0376275  
C83      C      0.297240000000     0.671680000000     0.003200000000     0.0321217  
C84      C      0.169440000000     0.784930000000     0.041060000000     0.0722243  
C85      C      0.189190000000     0.799880000000     0.963250000000     0.0743177  
C86      C      0.235330000000     0.753520000000     0.963040000000    -0.0802815  
C87      C      0.710640000000     0.582290000000     0.978210000000     0.0458426  
C88      C      0.631040000000     0.621780000000     0.029360000000     0.0532747  
C89      C      0.746440000000     0.640310000000     0.976270000000    -0.0647189  
C90      C      0.788800000000     0.774160000000     0.960450000000    -0.0889274  
C91      C      0.665780000000     0.679600000000     0.028070000000    -0.071133   
C92      C      0.764200000000     0.748430000000     0.000850000000     0.0433806  
C93      C      0.723400000000     0.689230000000     0.000750000000     0.0252129  
C94      C      0.839100000000     0.822860000000     0.961470000000     0.0782999  
C95      C      0.836140000000     0.823970000000     0.041340000000     0.077283   
C96      C      0.785650000000     0.775360000000     0.041570000000    -0.0890747  
C97      C      0.912900000000     0.145660000000     0.041480000000     0.0546188  
C98      C      0.876170000000     0.114720000000     0.968200000000     0.0703819  
C99      C      0.865110000000     0.191040000000     0.041320000000    -0.0641505  
C100     C      0.788220000000     0.306160000000     0.020760000000    -0.0830114  
C101     C      0.828520000000     0.159540000000     0.967500000000    -0.0758478  
C102     C      0.770810000000     0.246490000000     0.004350000000     0.0411026  
C103     C      0.821910000000     0.198330000000     0.004430000000     0.0307131  
C104     C      0.739750000000     0.350490000000     0.020360000000     0.0834532  
C105     C      0.656140000000     0.278300000000     0.988990000000     0.0773388  
C106     C      0.703610000000     0.233180000000     0.988260000000    -0.0844374  
C107     C      0.242510000000     0.092540000000     0.966080000000     0.0592863  
C108     C      0.219840000000     0.107650000000     0.043900000000     0.0795865  
C109     C      0.286390000000     0.146320000000     0.965720000000    -0.0717361  
C110     C      0.329230000000     0.283900000000     0.972510000000    -0.0810327  
C111     C      0.264780000000     0.160060000000     0.044630000000    -0.0805122  
C112     C      0.339680000000     0.238380000000     0.004460000000     0.04148    
C113     C      0.295900000000     0.180960000000     0.004840000000     0.0361787  
C114     C      0.371940000000     0.338120000000     0.972940000000     0.0887938  
C115     C      0.433780000000     0.302270000000     0.035210000000     0.0792948  
C116     C      0.392100000000     0.247870000000     0.036270000000    -0.0834725  
Cu1      Cu     0.035700000000     0.960970000000     0.961820000000     0.870573   
Cu2      Cu     0.035490000000     0.959070000000     0.044580000000     0.865287   
Cu3      Cu     0.009920000000     0.981680000000     0.456000000000     0.845894   
Cu4      Cu     0.008230000000     0.976640000000     0.538760000000     0.872073   
Cu5      Cu     0.587480000000     0.506940000000     0.005090000000     1.15733    
Cu6      Cu     0.484680000000     0.413820000000     0.002400000000     1.18998    
Cu7      Cu     0.561720000000     0.528620000000     0.501920000000     1.18741    
Cu8      Cu     0.462340000000     0.435540000000     0.511280000000     1.12359    
H1       H      0.437180000000     0.414770000000     0.863690000000     0.0313765  
H2       H      0.623830000000     0.478100000000     0.636490000000     0.0337084  
H3       H      0.622870000000     0.542740000000     0.787570000000     0.0611992  
H4       H      0.629580000000     0.467910000000     0.717870000000     0.0615828  
H5       H      0.433590000000     0.426320000000     0.782300000000     0.0674603  
H6       H      0.425480000000     0.526730000000     0.728840000000     0.0690251  
H7       H      0.624310000000     0.531930000000     0.868680000000     0.0400605  
H8       H      0.435760000000     0.651420000000     0.680150000000     0.153099   
H9       H      0.454720000000     0.385150000000     0.139640000000     0.033608   
H10      H      0.618690000000     0.494160000000     0.370520000000     0.0458804  
H11      H      0.597320000000     0.541990000000     0.225020000000     0.0561884  
H12      H      0.626550000000     0.486560000000     0.290390000000     0.0554541  
H13      H      0.447830000000     0.384760000000     0.221020000000     0.0577626  
H14      H      0.408200000000     0.444930000000     0.282300000000     0.0607064  
H15      H      0.604360000000     0.540070000000     0.143900000000     0.027433   
H16      H      0.292430000000     0.426060000000     0.321850000000     0.155883   
H17      H      0.115460000000     0.812430000000     0.564990000000     0.0357905  
H18      H      0.435530000000     0.667330000000     0.485420000000     0.0316824  
H19      H      0.232300000000     0.759840000000     0.424860000000     0.0583228  
H20      H      0.357090000000     0.747010000000     0.481890000000     0.0580511  
H21      H      0.190650000000     0.728580000000     0.565290000000     0.0652029  
H22      H      0.188120000000     0.615290000000     0.509190000000     0.0679722  
H23      H      0.154480000000     0.842160000000     0.424950000000     0.0304764  
H24      H      0.145270000000     0.504150000000     0.486170000000     0.1593     
H25      H      0.560300000000     0.631230000000     0.442270000000     0.0193067  
H26      H      0.849120000000     0.846770000000     0.422680000000     0.0313138  
H27      H      0.751010000000     0.676640000000     0.549240000000     0.0632435  
H28      H      0.763030000000     0.761000000000     0.421330000000     0.0577052  
H29      H      0.629030000000     0.731000000000     0.436980000000     0.0560454  
H30      H      0.715820000000     0.793110000000     0.559820000000     0.0599111  
H31      H      0.681210000000     0.577910000000     0.551670000000     0.034403   
H32      H      0.722570000000     0.865820000000     0.627370000000     0.155683   
H33      H      0.867510000000     0.114760000000     0.572400000000     0.0422793  
H34      H      0.587180000000     0.294690000000     0.535850000000     0.0355831  
H35      H      0.819510000000     0.227290000000     0.433610000000     0.0562941  
H36      H      0.664630000000     0.213850000000     0.535350000000     0.0581342  
H37      H      0.789120000000     0.196070000000     0.575270000000     0.061454   
H38      H      0.822700000000     0.336910000000     0.478220000000     0.0643955  
H39      H      0.895720000000     0.144120000000     0.431290000000     0.0312466  
H40      H      0.834540000000     0.426530000000     0.420760000000     0.152342   
H41      H      0.203020000000     0.078410000000     0.569520000000     0.0320212  
H42      H      0.434110000000     0.343420000000     0.448140000000     0.0304929  
H43      H      0.250910000000     0.210900000000     0.436970000000     0.0614458  
H44      H      0.363300000000     0.248330000000     0.441470000000     0.0552547  
H45      H      0.294270000000     0.159940000000     0.574060000000     0.0593728  
H46      H      0.308600000000     0.262620000000     0.581170000000     0.0663127  
H47      H      0.165500000000     0.125530000000     0.432510000000     0.0303551  
H48      H      0.421170000000     0.262980000000     0.637390000000     0.151761   
H49      H      0.144950000000     0.795970000000     0.072400000000     0.0315076  
H50      H      0.461700000000     0.648000000000     0.976080000000     0.0290554  
H51      H      0.260440000000     0.742600000000     0.931930000000     0.0598737  
H52      H      0.381680000000     0.727140000000     0.973060000000     0.0562049  
H53      H      0.222120000000     0.713760000000     0.073100000000     0.0593596  
H54      H      0.226560000000     0.604510000000     0.034460000000     0.0612952  
H55      H      0.181070000000     0.823390000000     0.931830000000     0.0406063  
H56      H      0.186040000000     0.495080000000     0.059370000000     0.157755   
H57      H      0.859320000000     0.840110000000     0.929530000000     0.0318657  
H58      H      0.585880000000     0.615130000000     0.050320000000     0.0269233  
H59      H      0.767110000000     0.756440000000     0.073410000000     0.0563059  
H60      H      0.647570000000     0.716480000000     0.048070000000     0.0506836  
H61      H      0.771780000000     0.754780000000     0.928410000000     0.0604696  
H62      H      0.793920000000     0.647010000000     0.957330000000     0.064819   
H63      H      0.854170000000     0.842000000000     0.073580000000     0.030572   
H64      H      0.787090000000     0.503140000000     0.019830000000     0.146462   
H65      H      0.755230000000     0.395290000000     0.034280000000     0.0348611  
H66      H      0.877800000000     0.085470000000     0.938810000000     0.0340337  
H67      H      0.687230000000     0.187690000000     0.975740000000     0.0562585  
H68      H      0.797120000000     0.163890000000     0.937830000000     0.0572408  
H69      H      0.839360000000     0.318900000000     0.033590000000     0.0640951  
H70      H      0.861410000000     0.220910000000     0.070110000000     0.0583408  
H71      H      0.604880000000     0.265450000000     0.976280000000     0.030088   
H72      H      0.935210000000     0.206370000000     0.139550000000     0.153955   
H73      H      0.364950000000     0.373610000000     0.948370000000     0.0266621  
H74      H      0.193650000000     0.095090000000     0.075130000000     0.040937   
H75      H      0.401600000000     0.213070000000     0.060980000000     0.0548363  
H76      H      0.272690000000     0.185570000000     0.075720000000     0.0615293  
H77      H      0.288500000000     0.277600000000     0.947780000000     0.0650829  
H78      H      0.314080000000     0.160720000000     0.935420000000     0.0653271  
H79      H      0.475840000000     0.309110000000     0.058810000000     0.0177554  
H80      H      0.353720000000     0.044130000000     0.909250000000     0.152288   
N1       N      0.521160000000     0.506290000000     0.635840000000    -0.195154   
N2       N      0.530920000000     0.472440000000     0.872230000000    -0.204061   
N3       N      0.509170000000     0.473060000000     0.374340000000    -0.192665   
N4       N      0.530120000000     0.462540000000     0.135710000000    -0.204905   
N5       N      0.358940000000     0.592590000000     0.498930000000    -0.182287   
N6       N      0.129150000000     0.834050000000     0.494980000000    -0.186657   
N7       N      0.835360000000     0.867870000000     0.492730000000    -0.187048   
N8       N      0.617580000000     0.600260000000     0.497210000000    -0.263113   
N9       N      0.658590000000     0.364840000000     0.507480000000    -0.188437   
N10      N      0.887660000000     0.122940000000     0.501610000000    -0.185506   
N11      N      0.409290000000     0.359390000000     0.516550000000    -0.234545   
N12      N      0.176810000000     0.097270000000     0.501150000000    -0.196268   
N13      N      0.391350000000     0.578820000000     0.006220000000    -0.19082    
N14      N      0.156990000000     0.816180000000     0.002100000000    -0.186273   
N15      N      0.652200000000     0.574560000000     0.004170000000    -0.248907   
N16      N      0.865130000000     0.845090000000     0.001660000000    -0.196379   
N17      N      0.916890000000     0.106010000000     0.005130000000    -0.178407   
N18      N      0.674140000000     0.336920000000     0.004420000000    -0.199738   
N19      N      0.204960000000     0.076600000000     0.004440000000    -0.186639   
N20      N      0.423030000000     0.345860000000     0.003920000000    -0.264187   
O1       O      0.096770000000     0.888500000000     0.965100000000    -0.376966   
O2       O      0.975080000000     0.033470000000     0.966800000000    -0.381348   
O3       O      0.120330000000     0.019220000000     0.966540000000    -0.385418   
O4       O      0.950760000000     0.902710000000     0.965020000000    -0.405428   
O5       O      0.948540000000     0.903400000000     0.039910000000    -0.403749   
O6       O      0.122370000000     0.015040000000     0.041140000000    -0.396342   
O7       O      0.978530000000     0.033890000000     0.041390000000    -0.369018   
O8       O      0.092700000000     0.884500000000     0.039840000000    -0.387521   
O9       O      0.070520000000     0.908330000000     0.458550000000    -0.3833     
O10      O      0.950070000000     0.054720000000     0.461990000000    -0.383079   
O11      O      0.094240000000     0.039820000000     0.461970000000    -0.405299   
O12      O      0.924170000000     0.923970000000     0.457670000000    -0.402554   
O13      O      0.921610000000     0.920950000000     0.532320000000    -0.385894   
O14      O      0.095280000000     0.033370000000     0.536760000000    -0.401036   
O15      O      0.949670000000     0.050560000000     0.536760000000    -0.377076   
O16      O      0.065830000000     0.902550000000     0.533200000000    -0.385026   
O17      O      0.577310000000     0.498960000000     0.940840000000    -0.467375   
O18      O      0.574690000000     0.501270000000     0.069270000000    -0.474916   
O19      O      0.645350000000     0.437410000000     0.011380000000    -0.451376   
O20      O      0.503680000000     0.552670000000     0.003930000000    -0.456735   
O21      O      0.421280000000     0.478120000000     0.005580000000    -0.439975   
O22      O      0.563740000000     0.365070000000     0.996540000000    -0.472138   
O23      O      0.495380000000     0.424010000000     0.067000000000    -0.472594   
O24      O      0.487940000000     0.430960000000     0.938440000000    -0.471735   
O25      O      0.558730000000     0.509440000000     0.439560000000    -0.46863    
O26      O      0.567690000000     0.520570000000     0.566140000000    -0.476191   
O27      O      0.626210000000     0.464880000000     0.500730000000    -0.430219   
O28      O      0.472680000000     0.568300000000     0.499990000000    -0.453587   
O29      O      0.391920000000     0.492640000000     0.505910000000    -0.407296   
O30      O      0.546610000000     0.391350000000     0.515110000000    -0.45657    
O31      O      0.465400000000     0.472140000000     0.571890000000    -0.428749   
O32      O      0.464430000000     0.448430000000     0.444860000000    -0.437609   
O33      O      0.331090000000     0.530250000000     0.631170000000    -0.126031   
O34      O      0.391910000000     0.625110000000     0.679030000000    -0.262851   
O35      O      0.432320000000     0.606010000000     0.593980000000    -0.170074   
O36      O      0.363500000000     0.521530000000     0.405350000000    -0.151274   
O37      O      0.308250000000     0.468710000000     0.330640000000    -0.26529    
O38      O      0.344060000000     0.397050000000     0.399840000000    -0.163241   
O39      O      0.278520000000     0.469200000000     0.556710000000    -0.122676   
O40      O      0.163350000000     0.502790000000     0.517230000000    -0.261207   
O41      O      0.263950000000     0.459910000000     0.466690000000    -0.141088   
O42      O      0.806160000000     0.978390000000     0.561280000000    -0.157834   
O43      O      0.717040000000     0.896820000000     0.603600000000    -0.267816   
O44      O      0.854940000000     0.889760000000     0.613300000000    -0.16788    
O45      O      0.765130000000     0.499770000000     0.512550000000    -0.155573   
O46      O      0.840900000000     0.444250000000     0.451280000000    -0.266272   
O47      O      0.712870000000     0.472580000000     0.429750000000    -0.167927   
O48      O      0.372110000000     0.413440000000     0.627660000000    -0.130006   
O49      O      0.389550000000     0.294630000000     0.645210000000    -0.262923   
O50      O      0.494770000000     0.366410000000     0.610190000000    -0.174557   
O51      O      0.355560000000     0.480200000000     0.088300000000    -0.155911   
O52      O      0.223910000000     0.507340000000     0.080530000000    -0.268223   
O53      O      0.281340000000     0.441370000000     0.015160000000    -0.16659    
O54      O      0.799230000000     0.550130000000     0.910370000000    -0.164322   
O55      O      0.803790000000     0.491160000000     0.989910000000    -0.258303   
O56      O      0.698500000000     0.465740000000     0.931050000000    -0.159795   
O57      O      0.050680000000     0.142730000000     0.068920000000    -0.156331   
O58      O      0.970210000000     0.214450000000     0.115690000000    -0.267211   
O59      O      0.949940000000     0.089950000000     0.122410000000    -0.170512   
O60      O      0.179180000000     0.058030000000     0.883930000000    -0.151777   
O61      O      0.318090000000     0.059650000000     0.889530000000    -0.265016   
O62      O      0.237920000000     0.971220000000     0.932520000000    -0.167284   
S1       S      0.405040000000     0.570670000000     0.640670000000     0.271733   
S2       S      0.366050000000     0.461230000000     0.371850000000     0.279954   
S3       S      0.249050000000     0.502090000000     0.511330000000     0.281988   
S4       S      0.793750000000     0.905660000000     0.577530000000     0.275859   
S5       S      0.760770000000     0.448840000000     0.471190000000     0.279547   
S6       S      0.409970000000     0.353170000000     0.609530000000     0.264797   
S7       S      0.296540000000     0.498240000000     0.051660000000     0.277994   
S8       S      0.751310000000     0.521200000000     0.952500000000     0.262979   
S9       S      0.971280000000     0.147630000000     0.087520000000     0.276526   
S10      S      0.243810000000     0.044730000000     0.917670000000     0.275653   


