data_structure

_audit_creation_method RASPA-1.0
_audit_creation_date 2023-6-4
_audit_author_name 'Poobodin Mano'

_cell_length_a    20.5925
_cell_length_b    21.003
_cell_length_c    29.9839
_cell_angle_alpha 89.9988
_cell_angle_beta  89.9988
_cell_angle_gamma 94.7461
_cell_volume      12923.7

_symmetry_cell_setting          triclinic
_symmetry_space_group_name_Hall 'P 1'
_symmetry_space_group_name_H-M  'P 1'
_symmetry_Int_Tables_number     1

_symmetry_equiv_pos_as_xyz 'x,y,z'

loop_
_atom_site_label
_atom_site_type_symbol
_atom_site_fract_x
_atom_site_fract_y
_atom_site_fract_z
_atom_site_charge
C1       C      0.082700000000     0.893690000000     0.003090000000     0.418893   
C2       C      0.911590000000     0.076810000000     0.001440000000     0.419536   
C3       C      0.094960000000     0.073660000000     0.003270000000     0.447057   
C4       C      0.899020000000     0.896830000000     0.001500000000     0.420715   
C5       C      0.086050000000     0.904310000000     0.502030000000     0.419793   
C6       C      0.900590000000     0.073470000000     0.501920000000     0.421007   
C7       C      0.083720000000     0.084790000000     0.504220000000     0.445937   
C8       C      0.902960000000     0.892960000000     0.499710000000     0.445698   
C9       C      0.496900000000     0.484930000000     0.914760000000     0.501112   
C10      C      0.496330000000     0.485360000000     0.085410000000     0.474909   
C11      C      0.584470000000     0.402220000000     0.000580000000     0.458812   
C12      C      0.409550000000     0.568040000000     0.000490000000     0.45532    
C13      C      0.491940000000     0.487820000000     0.414930000000     0.499583   
C14      C      0.494230000000     0.489770000000     0.585510000000     0.473512   
C15      C      0.576400000000     0.401790000000     0.499950000000     0.455625   
C16      C      0.410170000000     0.576150000000     0.499970000000     0.45704    
C17      C      0.466330000000     0.434930000000     0.845100000000     0.417303   
C18      C      0.527150000000     0.535850000000     0.846150000000     0.0991203  
C19      C      0.466370000000     0.435290000000     0.798490000000    -0.211806   
C20      C      0.442700000000     0.459740000000     0.701120000000    -0.074539   
C21      C      0.526920000000     0.538110000000     0.799580000000    -0.119684   
C22      C      0.495700000000     0.488700000000     0.725120000000     0.0181224  
C23      C      0.496380000000     0.487400000000     0.774950000000     0.0960076  
C24      C      0.443240000000     0.460230000000     0.654560000000     0.0746062  
C25      C      0.546400000000     0.519240000000     0.654290000000     0.0736812  
C26      C      0.548000000000     0.518620000000     0.700900000000    -0.0751409  
C27      C      0.440790000000     0.457110000000     0.345510000000     0.417136   
C28      C      0.543330000000     0.517370000000     0.346200000000     0.0996048  
C29      C      0.440670000000     0.457350000000     0.298880000000    -0.211902   
C30      C      0.461340000000     0.436550000000     0.200850000000    -0.0739823  
C31      C      0.545550000000     0.516680000000     0.299650000000    -0.119162   
C32      C      0.494650000000     0.486330000000     0.225090000000     0.0193426  
C33      C      0.493650000000     0.486780000000     0.275060000000     0.0960072  
C34      C      0.461680000000     0.437480000000     0.154280000000     0.0767513  
C35      C      0.529780000000     0.534030000000     0.154310000000     0.0803632  
C36      C      0.528820000000     0.535660000000     0.200900000000    -0.0736818  
C37      C      0.165710000000     0.845420000000     0.540270000000     0.408312   
C38      C      0.146890000000     0.828870000000     0.463150000000     0.0905853  
C39      C      0.212890000000     0.800300000000     0.539930000000    -0.199688   
C40      C      0.341200000000     0.733140000000     0.509540000000    -0.0733391  
C41      C      0.192300000000     0.782160000000     0.462150000000    -0.1108     
C42      C      0.274940000000     0.717490000000     0.500320000000     0.0187608  
C43      C      0.226400000000     0.767410000000     0.500760000000     0.0888373  
C44      C      0.385940000000     0.685700000000     0.508520000000     0.0713738  
C45      C      0.301000000000     0.606830000000     0.491410000000     0.0728541  
C46      C      0.255430000000     0.653360000000     0.490820000000    -0.0732159  
C47      C      0.830920000000     0.819540000000     0.459160000000     0.422507   
C48      C      0.836280000000     0.814950000000     0.538440000000     0.105336   
C49      C      0.783200000000     0.769060000000     0.458870000000    -0.219801   
C50      C      0.657180000000     0.694200000000     0.529050000000    -0.0717297  
C51      C      0.788850000000     0.764460000000     0.539170000000    -0.124407   
C52      C      0.709420000000     0.690850000000     0.499520000000     0.0133548  
C53      C      0.761710000000     0.741750000000     0.499130000000     0.103639   
C54      C      0.607340000000     0.645920000000     0.528530000000     0.0724744  
C55      C      0.659960000000     0.592110000000     0.470670000000     0.0738721  
C56      C      0.710950000000     0.639340000000     0.470070000000    -0.072099   
C57      C      0.818750000000     0.130180000000     0.539640000000     0.410264   
C58      C      0.842000000000     0.151130000000     0.463530000000     0.0917565  
C59      C      0.771540000000     0.175300000000     0.539270000000    -0.199209   
C60      C      0.645660000000     0.245040000000     0.510410000000    -0.0728652  
C61      C      0.796670000000     0.197910000000     0.462610000000    -0.110965   
C62      C      0.711690000000     0.260430000000     0.500280000000     0.0189356  
C63      C      0.760300000000     0.210480000000     0.500680000000     0.089475   
C64      C      0.600870000000     0.292450000000     0.509360000000     0.0718574  
C65      C      0.685350000000     0.370910000000     0.490520000000     0.0713718  
C66      C      0.730910000000     0.324360000000     0.489880000000    -0.0737514  
C67      C      0.150860000000     0.162340000000     0.544870000000     0.426089   
C68      C      0.155330000000     0.158650000000     0.465530000000     0.105264   
C69      C      0.198260000000     0.213110000000     0.545300000000    -0.219906   
C70      C      0.273630000000     0.339020000000     0.475460000000    -0.0651279  
C71      C      0.202690000000     0.209210000000     0.464940000000    -0.125553   
C72      C      0.276310000000     0.287780000000     0.505040000000     0.013576   
C73      C      0.224520000000     0.236400000000     0.505120000000     0.106222   
C74      C      0.324890000000     0.385910000000     0.474650000000     0.0806242  
C75      C      0.379830000000     0.332620000000     0.531660000000     0.0751064  
C76      C      0.329720000000     0.284660000000     0.533580000000    -0.0694899  
C77      C      0.159820000000     0.832270000000     0.041720000000     0.408139   
C78      C      0.140310000000     0.815180000000     0.964730000000     0.0898432  
C79      C      0.206200000000     0.786360000000     0.041480000000    -0.199784   
C80      C      0.334680000000     0.721680000000     0.011020000000    -0.0737327  
C81      C      0.184910000000     0.767680000000     0.963850000000    -0.111115   
C82      C      0.268850000000     0.704170000000     0.001780000000     0.0177505  
C83      C      0.219150000000     0.752990000000     0.002410000000     0.0883992  
C84      C      0.380960000000     0.675860000000     0.009790000000     0.0703632  
C85      C      0.298550000000     0.594550000000     0.992450000000     0.0703032  
C86      C      0.251300000000     0.639630000000     0.992070000000    -0.0725845  
C87      C      0.660980000000     0.596090000000     0.026890000000     0.419845   
C88      C      0.600350000000     0.649340000000     0.972860000000     0.0997614  
C89      C      0.708490000000     0.646650000000     0.027570000000    -0.219683   
C90      C      0.774840000000     0.778630000000     0.960390000000    -0.0749956  
C91      C      0.646620000000     0.700920000000     0.972540000000    -0.121216   
C92      C      0.750450000000     0.753140000000     0.000530000000     0.016358   
C93      C      0.701060000000     0.699570000000     0.000260000000     0.0983861  
C94      C      0.824040000000     0.827610000000     0.961310000000     0.0753682  
C95      C      0.823640000000     0.826840000000     0.040680000000     0.0756497  
C96      C      0.774410000000     0.777940000000     0.040970000000    -0.0750154  
C97      C      0.854870000000     0.157030000000     0.962840000000     0.408426   
C98      C      0.834010000000     0.136860000000     0.039340000000     0.0908737  
C99      C      0.809960000000     0.204340000000     0.962760000000    -0.19924    
C100     C      0.742440000000     0.330500000000     0.990840000000    -0.0708158  
C101     C      0.787380000000     0.182390000000     0.039860000000    -0.110915   
C102     C      0.725210000000     0.266140000000     0.001320000000     0.0198272  
C103     C      0.774920000000     0.217280000000     0.001360000000     0.0892241  
C104     C      0.695210000000     0.375570000000     0.991480000000     0.0786219  
C105     C      0.613360000000     0.294630000000     0.010620000000     0.0747104  
C106     C      0.659680000000     0.248830000000     0.011650000000    -0.0726048  
C107     C      0.169800000000     0.145230000000     0.043040000000     0.425941   
C108     C      0.170090000000     0.142880000000     0.963610000000     0.107719   
C109     C      0.218760000000     0.194540000000     0.042820000000    -0.220295   
C110     C      0.347380000000     0.268970000000     0.974080000000    -0.0644036  
C111     C      0.218940000000     0.192070000000     0.962360000000    -0.124185   
C112     C      0.292720000000     0.271680000000     0.001480000000     0.0136008  
C113     C      0.242940000000     0.218480000000     0.002250000000     0.106393   
C114     C      0.394050000000     0.320200000000     0.973790000000     0.082139   
C115     C      0.333440000000     0.375720000000     0.026580000000     0.0753826  
C116     C      0.285500000000     0.325580000000     0.027910000000    -0.0693293  
Cu1      Cu     0.997810000000     0.985120000000     0.961230000000     0.869555   
Cu2      Cu     0.996210000000     0.985160000000     0.043390000000     0.884534   
Cu3      Cu     0.994360000000     0.989920000000     0.460900000000     0.866457   
Cu4      Cu     0.992300000000     0.987850000000     0.543000000000     0.900123   
Cu5      Cu     0.544280000000     0.533390000000     0.000000000000     1.1926     
Cu6      Cu     0.449910000000     0.436930000000     0.000140000000     1.15346    
Cu7      Cu     0.543300000000     0.534080000000     0.499890000000     1.15126    
Cu8      Cu     0.443120000000     0.443740000000     0.500780000000     1.15756    
F1       F      0.436720000000     0.382710000000     0.865760000000    -0.454609   
F2       F      0.387700000000     0.428210000000     0.366450000000    -0.456376   
F3       F      0.155070000000     0.875130000000     0.579530000000    -0.439795   
F4       F      0.849780000000     0.845250000000     0.419120000000    -0.447651   
F5       F      0.827130000000     0.098230000000     0.578340000000    -0.439956   
F6       F      0.126650000000     0.141190000000     0.584880000000    -0.437751   
F7       F      0.150010000000     0.862610000000     0.080870000000    -0.439837   
F8       F      0.667220000000     0.544780000000     0.053480000000    -0.466526   
F9       F      0.886740000000     0.147010000000     0.924110000000    -0.443029   
F10      F      0.147690000000     0.123400000000     0.083420000000    -0.441496   
H1       H      0.401230000000     0.437050000000     0.637540000000     0.0324516  
H2       H      0.551220000000     0.576430000000     0.863610000000     0.0233207  
H3       H      0.590660000000     0.540720000000     0.717650000000     0.0535338  
H4       H      0.549830000000     0.580070000000     0.783200000000     0.0643138  
H5       H      0.400370000000     0.437270000000     0.718040000000     0.0588185  
H6       H      0.443550000000     0.394150000000     0.781100000000     0.119013   
H7       H      0.587970000000     0.542800000000     0.637020000000     0.0303717  
H8       H      0.435060000000     0.398060000000     0.137090000000     0.0323954  
H9       H      0.584770000000     0.541070000000     0.363560000000     0.0235433  
H10      H      0.554140000000     0.576140000000     0.217540000000     0.0559983  
H11      H      0.588510000000     0.538870000000     0.283350000000     0.0665054  
H12      H      0.435590000000     0.396280000000     0.217470000000     0.0582391  
H13      H      0.398360000000     0.435190000000     0.281820000000     0.117819   
H14      H      0.556870000000     0.573170000000     0.137140000000     0.0430222  
H15      H      0.436620000000     0.700350000000     0.515560000000     0.0306571  
H16      H      0.122220000000     0.838400000000     0.432220000000     0.0339883  
H17      H      0.204800000000     0.638960000000     0.483590000000     0.0578969  
H18      H      0.201120000000     0.758070000000     0.431060000000     0.0683513  
H19      H      0.358590000000     0.782060000000     0.516990000000     0.0595225  
H20      H      0.238090000000     0.790410000000     0.570560000000     0.118521   
H21      H      0.283100000000     0.557890000000     0.484250000000     0.0345168  
H22      H      0.566570000000     0.647760000000     0.551110000000     0.0203189  
H23      H      0.856020000000     0.831430000000     0.570330000000     0.0336329  
H24      H      0.751170000000     0.635520000000     0.447190000000     0.0563422  
H25      H      0.773460000000     0.743410000000     0.570850000000     0.0693715  
H26      H      0.654550000000     0.734010000000     0.551790000000     0.0545171  
H27      H      0.762220000000     0.752400000000     0.427390000000     0.121678   
H28      H      0.660330000000     0.551880000000     0.448190000000     0.0217487  
H29      H      0.550380000000     0.277960000000     0.517110000000     0.0321811  
H30      H      0.868450000000     0.143350000000     0.433020000000     0.0315323  
H31      H      0.781330000000     0.338640000000     0.481950000000     0.0564381  
H32      H      0.789650000000     0.223730000000     0.431940000000     0.0664511  
H33      H      0.628430000000     0.196300000000     0.518550000000     0.0601585  
H34      H      0.744600000000     0.183420000000     0.569490000000     0.119659   
H35      H      0.703050000000     0.419670000000     0.482650000000     0.0305922  
H36      H      0.323670000000     0.425820000000     0.451970000000     0.0488732  
H37      H      0.139960000000     0.138440000000     0.433580000000     0.0291227  
H38      H      0.333170000000     0.245090000000     0.556410000000     0.0595294  
H39      H      0.222970000000     0.226040000000     0.433300000000     0.0744838  
H40      H      0.232480000000     0.342690000000     0.453350000000     0.0601908  
H41      H      0.214230000000     0.234110000000     0.576870000000     0.124869   
H42      H      0.421600000000     0.330890000000     0.553360000000     0.0216375  
H43      H      0.431240000000     0.692210000000     0.016810000000     0.0316183  
H44      H      0.115780000000     0.824940000000     0.933790000000     0.0302536  
H45      H      0.201020000000     0.623800000000     0.984820000000     0.0571865  
H46      H      0.193410000000     0.743340000000     0.932800000000     0.0665929  
H47      H      0.350610000000     0.770930000000     0.018620000000     0.0589933  
H48      H      0.231600000000     0.776620000000     0.072060000000     0.118751   
H49      H      0.282380000000     0.545230000000     0.985150000000     0.0336772  
H50      H      0.842670000000     0.845850000000     0.929560000000     0.0357209  
H51      H      0.557660000000     0.649980000000     0.951910000000     0.014681   
H52      H      0.755410000000     0.759510000000     0.072560000000     0.0591588  
H53      H      0.639600000000     0.741630000000     0.951390000000     0.0653276  
H54      H      0.757170000000     0.759850000000     0.928570000000     0.0553267  
H55      H      0.750730000000     0.644330000000     0.048900000000     0.118612   
H56      H      0.841660000000     0.844730000000     0.072670000000     0.0367062  
H57      H      0.711160000000     0.424740000000     0.983520000000     0.0452983  
H58      H      0.841770000000     0.111620000000     0.070170000000     0.0317313  
H59      H      0.643970000000     0.199730000000     0.019830000000     0.0571858  
H60      H      0.761620000000     0.190740000000     0.070530000000     0.0675402  
H61      H      0.792470000000     0.346190000000     0.982730000000     0.0622476  
H62      H      0.801890000000     0.230110000000     0.932220000000     0.119658   
H63      H      0.563290000000     0.278430000000     0.018430000000     0.0336334  
H64      H      0.436950000000     0.318620000000     0.953150000000     0.0476965  
H65      H      0.152070000000     0.124080000000     0.931850000000     0.0338506  
H66      H      0.243210000000     0.328970000000     0.049010000000     0.0585705  
H67      H      0.236800000000     0.210160000000     0.930400000000     0.0765977  
H68      H      0.354250000000     0.227500000000     0.953650000000     0.0612509  
H69      H      0.237680000000     0.213810000000     0.074200000000     0.123709   
H70      H      0.328980000000     0.417590000000     0.047000000000     0.0219004  
N1       N      0.496690000000     0.485000000000     0.868900000000    -0.255449   
N2       N      0.494630000000     0.489840000000     0.631280000000    -0.203468   
N3       N      0.491770000000     0.487310000000     0.369100000000    -0.255367   
N4       N      0.495970000000     0.485620000000     0.131160000000    -0.200462   
N5       N      0.132700000000     0.860020000000     0.501960000000    -0.232124   
N6       N      0.366060000000     0.622680000000     0.499920000000    -0.196202   
N7       N      0.856850000000     0.842680000000     0.498870000000    -0.247038   
N8       N      0.609770000000     0.596580000000     0.499550000000    -0.263418   
N9       N      0.853950000000     0.117760000000     0.501840000000    -0.231883   
N10      N      0.620510000000     0.355260000000     0.499900000000    -0.196351   
N11      N      0.129830000000     0.135070000000     0.505100000000    -0.247202   
N12      N      0.376460000000     0.381450000000     0.502330000000    -0.26106    
N13      N      0.127200000000     0.847320000000     0.003370000000    -0.232723   
N14      N      0.363230000000     0.612450000000     0.000900000000    -0.196612   
N15      N      0.608350000000     0.598610000000     0.999800000000    -0.317926   
N16      N      0.848770000000     0.850730000000     0.001150000000    -0.194575   
N17      N      0.867270000000     0.123330000000     0.001050000000    -0.232742   
N18      N      0.630810000000     0.357830000000     0.000910000000    -0.192803   
N19      N      0.145010000000     0.120200000000     0.003530000000    -0.246924   
N20      N      0.386110000000     0.371830000000     0.999840000000    -0.260271   
O1       O      0.060960000000     0.914050000000     0.965810000000    -0.386495   
O2       O      0.934570000000     0.056220000000     0.964640000000    -0.342581   
O3       O      0.073140000000     0.051230000000     0.965960000000    -0.403873   
O4       O      0.922270000000     0.919010000000     0.964500000000    -0.403744   
O5       O      0.922990000000     0.916840000000     0.038830000000    -0.405244   
O6       O      0.069540000000     0.053550000000     0.040110000000    -0.359707   
O7       O      0.929800000000     0.053290000000     0.038710000000    -0.383155   
O8       O      0.062790000000     0.917050000000     0.039940000000    -0.339292   
O9       O      0.063100000000     0.923970000000     0.464920000000    -0.382484   
O10      O      0.925430000000     0.055670000000     0.464910000000    -0.381948   
O11      O      0.064480000000     0.061200000000     0.466620000000    -0.410667   
O12      O      0.923990000000     0.918390000000     0.463150000000    -0.365309   
O13      O      0.924960000000     0.914140000000     0.537310000000    -0.405407   
O14      O      0.059910000000     0.061780000000     0.540770000000    -0.35799    
O15      O      0.920190000000     0.050260000000     0.538900000000    -0.338725   
O16      O      0.064590000000     0.925650000000     0.539060000000    -0.340659   
O17      O      0.531190000000     0.527760000000     0.936100000000    -0.484492   
O18      O      0.535040000000     0.524490000000     0.064050000000    -0.444689   
O19      O      0.601160000000     0.461880000000     0.997040000000    -0.424115   
O20      O      0.470000000000     0.586240000000     0.003000000000    -0.459671   
O21      O      0.392770000000     0.508290000000     0.997660000000    -0.451489   
O22      O      0.524100000000     0.384090000000     0.003800000000    -0.45054    
O23      O      0.457870000000     0.446010000000     0.064070000000    -0.471777   
O24      O      0.462650000000     0.442390000000     0.936320000000    -0.440592   
O25      O      0.532980000000     0.525020000000     0.435970000000    -0.478323   
O26      O      0.538990000000     0.521420000000     0.563850000000    -0.472584   
O27      O      0.596310000000     0.460700000000     0.497240000000    -0.453909   
O28      O      0.471400000000     0.591260000000     0.502230000000    -0.453968   
O29      O      0.390220000000     0.517200000000     0.497860000000    -0.450475   
O30      O      0.515200000000     0.386700000000     0.502810000000    -0.452218   
O31      O      0.449130000000     0.457840000000     0.564390000000    -0.474792   
O32      O      0.451540000000     0.450960000000     0.436690000000    -0.43892    


