data_structure

_audit_creation_method RASPA-1.0
_audit_creation_date 2023-6-4
_audit_author_name 'Poobodin Mano'

_cell_length_a    20.0006
_cell_length_b    21.4645
_cell_length_c    29.9541
_cell_angle_alpha 89.9989
_cell_angle_beta  89.9989
_cell_angle_gamma 94.7468
_cell_volume      12815.3

_symmetry_cell_setting          triclinic
_symmetry_space_group_name_Hall 'P 1'
_symmetry_space_group_name_H-M  'P 1'
_symmetry_Int_Tables_number     1

_symmetry_equiv_pos_as_xyz 'x,y,z'

loop_
_atom_site_label
_atom_site_type_symbol
_atom_site_fract_x
_atom_site_fract_y
_atom_site_fract_z
_atom_site_charge
Br1      Br     0.533450000000     0.613180000000     0.865750000000    -0.245063   
Br2      Br     0.590640000000     0.614810000000     0.131250000000    -0.229768   
Br3      Br     0.188540000000     0.872990000000     0.416600000000    -0.225709   
Br4      Br     0.789910000000     0.900380000000     0.452340000000    -0.183267   
Br5      Br     0.793210000000     0.011920000000     0.452620000000    -0.182058   
Br6      Br     0.204590000000     0.073570000000     0.593220000000    -0.227769   
Br7      Br     0.196250000000     0.902160000000     0.910790000000    -0.228131   
Br8      Br     0.778340000000     0.923400000000     0.043670000000    -0.181646   
Br9      Br     0.782300000000     0.034600000000     0.049680000000    -0.181343   
Br10     Br     0.495380000000     0.306170000000     0.010820000000    -0.280992   
C1       C      0.094810000000     0.899780000000     0.995790000000     0.406319   
C2       C      0.913240000000     0.072630000000     0.993800000000     0.412152   
C3       C      0.100530000000     0.076380000000     0.003580000000     0.420348   
C4       C      0.905340000000     0.898710000000     0.986300000000     0.434812   
C5       C      0.102240000000     0.877670000000     0.508230000000     0.40713    
C6       C      0.922100000000     0.051960000000     0.510440000000     0.41055    
C7       C      0.112860000000     0.052260000000     0.503600000000     0.429301   
C8       C      0.911700000000     0.878970000000     0.516140000000     0.43414    
C9       C      0.494730000000     0.482050000000     0.916570000000     0.478851   
C10      C      0.512980000000     0.490160000000     0.087220000000     0.482263   
C11      C      0.593160000000     0.404250000000     0.999840000000     0.42922    
C12      C      0.419480000000     0.571830000000     0.003960000000     0.468337   
C13      C      0.516420000000     0.473450000000     0.417210000000     0.472842   
C14      C      0.509140000000     0.457990000000     0.587750000000     0.473153   
C15      C      0.599600000000     0.381750000000     0.501720000000     0.455976   
C16      C      0.427850000000     0.550500000000     0.505180000000     0.457219   
C17      C      0.513650000000     0.529270000000     0.844010000000     0.194159   
C18      C      0.468540000000     0.423880000000     0.850540000000     0.0821925  
C19      C      0.515860000000     0.523100000000     0.797600000000    -0.124952   
C20      C      0.554200000000     0.492010000000     0.704220000000    -0.0831632  
C21      C      0.470760000000     0.416420000000     0.804090000000    -0.0948932  
C22      C      0.501050000000     0.459900000000     0.727430000000     0.0311595  
C23      C      0.495910000000     0.466110000000     0.776980000000     0.0563314  
C24      C      0.556360000000     0.490200000000     0.657710000000     0.0754653  
C25      C      0.456620000000     0.422540000000     0.655890000000     0.0750025  
C26      C      0.452410000000     0.424010000000     0.702600000000    -0.0822208  
C27      C      0.549620000000     0.538730000000     0.157390000000     0.190626   
C28      C      0.486340000000     0.440150000000     0.155950000000     0.0831742  
C29      C      0.550550000000     0.536750000000     0.204300000000    -0.121542   
C30      C      0.572270000000     0.510680000000     0.302750000000    -0.0818987  
C31      C      0.487740000000     0.436650000000     0.202380000000    -0.0951584  
C32      C      0.518590000000     0.483200000000     0.277440000000     0.0318807  
C33      C      0.519310000000     0.485540000000     0.227480000000     0.0559593  
C34      C      0.570460000000     0.507610000000     0.349420000000     0.076114   
C35      C      0.464400000000     0.449800000000     0.347040000000     0.075137   
C36      C      0.463980000000     0.453020000000     0.300480000000    -0.0824702  
C37      C      0.187590000000     0.822720000000     0.470060000000     0.187538   
C38      C      0.157660000000     0.797660000000     0.544910000000     0.0776046  
C39      C      0.234120000000     0.776730000000     0.470470000000    -0.117664   
C40      C      0.359050000000     0.705020000000     0.499350000000    -0.0801167  
C41      C      0.202380000000     0.750330000000     0.545600000000    -0.0905967  
C42      C      0.290750000000     0.690030000000     0.508330000000     0.0306587  
C43      C      0.241670000000     0.739450000000     0.508160000000     0.0531118  
C44      C      0.404340000000     0.658130000000     0.499270000000     0.0723447  
C45      C      0.315980000000     0.581120000000     0.514960000000     0.0720767  
C46      C      0.269740000000     0.627140000000     0.516630000000    -0.0811863  
C47      C      0.812440000000     0.828310000000     0.486090000000     0.191469   
C48      C      0.861370000000     0.790310000000     0.552350000000     0.0872753  
C49      C      0.769110000000     0.774500000000     0.483350000000    -0.125308   
C50      C      0.673730000000     0.667110000000     0.545770000000    -0.07988    
C51      C      0.817290000000     0.737080000000     0.551410000000    -0.0996312  
C52      C      0.725660000000     0.673430000000     0.514590000000     0.0285259  
C53      C      0.772610000000     0.728430000000     0.515880000000     0.0596149  
C54      C      0.626550000000     0.616440000000     0.542330000000     0.0726412  
C55      C      0.683320000000     0.577860000000     0.479560000000     0.0745613  
C56      C      0.731020000000     0.628550000000     0.481280000000    -0.0809308  
C57      C      0.821680000000     0.090620000000     0.480820000000     0.181676   
C58      C      0.881290000000     0.145320000000     0.539130000000     0.0778612  
C59      C      0.777210000000     0.138170000000     0.477930000000    -0.114343   
C60      C      0.666730000000     0.226240000000     0.498640000000    -0.0800422  
C61      C      0.837520000000     0.193380000000     0.537090000000    -0.0894686  
C62      C      0.736010000000     0.241060000000     0.504350000000     0.0313383  
C63      C      0.784640000000     0.190760000000     0.506040000000     0.0515127  
C64      C      0.622000000000     0.273610000000     0.497870000000     0.0723519  
C65      C      0.712090000000     0.350910000000     0.507270000000     0.0716979  
C66      C      0.758070000000     0.304640000000     0.508750000000    -0.0809434  
C67      C      0.202000000000     0.118170000000     0.537210000000     0.194671   
C68      C      0.174020000000     0.128730000000     0.460330000000     0.0857639  
C69      C      0.246330000000     0.171260000000     0.534310000000    -0.127665   
C70      C      0.293170000000     0.307700000000     0.523040000000    -0.0805152  
C71      C      0.218860000000     0.181220000000     0.456500000000    -0.0985888  
C72      C      0.299100000000     0.259950000000     0.491830000000     0.0282266  
C73      C      0.253610000000     0.203590000000     0.494130000000     0.0603979  
C74      C      0.341500000000     0.357730000000     0.523860000000     0.0739452  
C75      C      0.399190000000     0.314770000000     0.463190000000     0.0739378  
C76      C      0.351580000000     0.264140000000     0.460880000000    -0.0799689  
C77      C      0.185680000000     0.847230000000     0.961770000000     0.186338   
C78      C      0.142700000000     0.815550000000     0.032710000000     0.0759831  
C79      C      0.231250000000     0.800500000000     0.963630000000    -0.11799    
C80      C      0.349720000000     0.725330000000     0.994650000000    -0.079764   
C81      C      0.186570000000     0.767610000000     0.034720000000    -0.0905252  
C82      C      0.281040000000     0.710200000000     0.002060000000     0.0323704  
C83      C      0.232010000000     0.759670000000     0.000050000000     0.0530336  
C84      C      0.395180000000     0.678800000000     0.996280000000     0.078841   
C85      C      0.306630000000     0.601580000000     0.010980000000     0.0747331  
C86      C      0.259980000000     0.647360000000     0.010790000000    -0.0811025  
C87      C      0.803480000000     0.849620000000     0.013010000000     0.192294   
C88      C      0.861560000000     0.805770000000     0.952490000000     0.0876601  
C89      C      0.760130000000     0.795980000000     0.015840000000    -0.125361   
C90      C      0.658360000000     0.697600000000     0.967320000000    -0.0735614  
C91      C      0.818610000000     0.751690000000     0.954250000000    -0.0989748  
C92      C      0.720440000000     0.692770000000     0.987480000000     0.0308904  
C93      C      0.768840000000     0.746570000000     0.986850000000     0.0616223  
C94      C      0.609960000000     0.648160000000     0.971030000000     0.0813186  
C95      C      0.683590000000     0.590180000000     0.013700000000     0.0833325  
C96      C      0.733820000000     0.638760000000     0.010700000000    -0.0764619  
C97      C      0.813700000000     0.113390000000     0.022830000000     0.183199   
C98      C      0.875820000000     0.167430000000     0.965320000000     0.0790178  
C99      C      0.770770000000     0.162130000000     0.025670000000    -0.116064   
C100     C      0.662670000000     0.250840000000     0.004480000000    -0.057764   
C101     C      0.833430000000     0.216560000000     0.967150000000    -0.091417   
C102     C      0.731910000000     0.265590000000     0.998580000000     0.0232002  
C103     C      0.780020000000     0.214850000000     0.997720000000     0.0555798  
C104     C      0.618750000000     0.298510000000     0.004490000000     0.0371077  
C105     C      0.707890000000     0.375710000000     0.993570000000     0.0699989  
C106     C      0.754030000000     0.329260000000     0.992930000000    -0.074354   
C107     C      0.403610000000     0.318780000000     0.014570000000     0.190247   
C108     C      0.319510000000     0.390590000000     0.011830000000     0.0835451  
C109     C      0.355710000000     0.268890000000     0.018860000000    -0.128474   
C110     C      0.217980000000     0.207590000000     0.973680000000    -0.0841366  
C111     C      0.269650000000     0.341920000000     0.015700000000    -0.0985728  
C112     C      0.238110000000     0.228840000000     0.015800000000     0.0317099  
C113     C      0.288350000000     0.280860000000     0.018940000000     0.0569894  
C114     C      0.172730000000     0.155580000000     0.970250000000     0.0775759  
C115     C      0.167810000000     0.146300000000     0.049420000000     0.0763704  
C116     C      0.213590000000     0.198120000000     0.054030000000    -0.0838247  
Cu1      Cu     0.009170000000     0.990120000000     0.953790000000     0.861493   
Cu2      Cu     0.998650000000     0.982630000000     0.035760000000     0.874305   
Cu3      Cu     0.008430000000     0.962910000000     0.468700000000     0.883421   
Cu4      Cu     0.016180000000     0.967420000000     0.550790000000     0.857624   
Cu5      Cu     0.555590000000     0.533110000000     0.998910000000     1.16355    
Cu6      Cu     0.454010000000     0.441010000000     0.004910000000     1.15635    
Cu7      Cu     0.565410000000     0.510260000000     0.504460000000     1.15772    
Cu8      Cu     0.461260000000     0.421600000000     0.500370000000     1.15385    
H1       H      0.598000000000     0.516640000000     0.641400000000     0.0277787  
H2       H      0.450470000000     0.383480000000     0.870170000000     0.0309168  
H3       H      0.410190000000     0.398630000000     0.718890000000     0.0545032  
H4       H      0.454430000000     0.371400000000     0.789770000000     0.0587609  
H5       H      0.594140000000     0.518900000000     0.721810000000     0.0562183  
H6       H      0.531780000000     0.563670000000     0.777570000000     0.082166   
H7       H      0.417330000000     0.395160000000     0.637930000000     0.0282641  
H8       H      0.613160000000     0.529340000000     0.367550000000     0.0287153  
H9       H      0.461130000000     0.400570000000     0.138540000000     0.0318395  
H10      H      0.420390000000     0.432380000000     0.282840000000     0.0538946  
H11      H      0.464400000000     0.395110000000     0.218320000000     0.0579796  
H12      H      0.616170000000     0.533670000000     0.286790000000     0.0573784  
H13      H      0.574190000000     0.576230000000     0.222480000000     0.0825264  
H14      H      0.421100000000     0.425780000000     0.363210000000     0.0282633  
H15      H      0.456640000000     0.672240000000     0.492410000000     0.0310816  
H16      H      0.128620000000     0.803950000000     0.574910000000     0.0311001  
H17      H      0.217450000000     0.613330000000     0.523550000000     0.0546199  
H18      H      0.206820000000     0.722880000000     0.575640000000     0.058981   
H19      H      0.377600000000     0.753010000000     0.492830000000     0.0603049  
H20      H      0.264430000000     0.770000000000     0.441140000000     0.0833018  
H21      H      0.297010000000     0.533100000000     0.521120000000     0.0283299  
H22      H      0.584710000000     0.612020000000     0.565280000000     0.0195384  
H23      H      0.898390000000     0.794700000000     0.578890000000     0.0259013  
H24      H      0.771190000000     0.633000000000     0.456920000000     0.0569243  
H25      H      0.819060000000     0.702300000000     0.577530000000     0.0599677  
H26      H      0.668790000000     0.701860000000     0.571550000000     0.0568976  
H27      H      0.730550000000     0.770190000000     0.457840000000     0.0850071  
H28      H      0.686380000000     0.542710000000     0.453950000000     0.0197495  
H29      H      0.569080000000     0.259390000000     0.493750000000     0.0299698  
H30      H      0.921970000000     0.149950000000     0.563160000000     0.0284357  
H31      H      0.810930000000     0.318880000000     0.512820000000     0.0534644  
H32      H      0.844740000000     0.232110000000     0.560230000000     0.0569087  
H33      H      0.646680000000     0.178000000000     0.495590000000     0.0590588  
H34      H      0.735530000000     0.132740000000     0.454800000000     0.0806739  
H35      H      0.732010000000     0.399200000000     0.510710000000     0.0291341  
H36      H      0.338490000000     0.394290000000     0.548450000000     0.020057   
H37      H      0.145970000000     0.114170000000     0.430610000000     0.0331957  
H38      H      0.357270000000     0.227430000000     0.436680000000     0.0559243  
H39      H      0.224810000000     0.205180000000     0.424720000000     0.0604951  
H40      H      0.252570000000     0.305440000000     0.547100000000     0.0551886  
H41      H      0.275960000000     0.186790000000     0.563160000000     0.0844747  
H42      H      0.441600000000     0.317580000000     0.440670000000     0.0181566  
H43      H      0.447700000000     0.693210000000     0.990460000000     0.0352222  
H44      H      0.108750000000     0.819370000000     0.060620000000     0.0313656  
H45      H      0.207420000000     0.633360000000     0.016570000000     0.0545158  
H46      H      0.185620000000     0.737520000000     0.063780000000     0.0591981  
H47      H      0.368480000000     0.773240000000     0.988030000000     0.0618983  
H48      H      0.266260000000     0.796080000000     0.936420000000     0.0837478  
H49      H      0.287770000000     0.553620000000     0.017360000000     0.0259766  
H50      H      0.561370000000     0.652160000000     0.956290000000     0.039388   
H51      H      0.902030000000     0.808210000000     0.928260000000     0.0272624  
H52      H      0.781660000000     0.634970000000     0.027040000000     0.0586887  
H53      H      0.824230000000     0.714250000000     0.930620000000     0.0627672  
H54      H      0.647160000000     0.739600000000     0.949680000000     0.0647342  
H55      H      0.718260000000     0.793820000000     0.038940000000     0.0906789  
H56      H      0.692300000000     0.548480000000     0.032350000000     0.0239378  
H57      H      0.566070000000     0.291020000000     0.008170000000     0.113416   
H58      H      0.917010000000     0.171330000000     0.941660000000     0.02622    
H59      H      0.806860000000     0.343350000000     0.988570000000     0.0520033  
H60      H      0.842020000000     0.255280000000     0.944110000000     0.0572518  
H61      H      0.642120000000     0.202860000000     0.008150000000     0.0578256  
H62      H      0.728610000000     0.157340000000     0.048450000000     0.082      
H63      H      0.727110000000     0.424060000000     0.989350000000     0.0295611  
H64      H      0.157880000000     0.140250000000     0.936930000000     0.0342796  
H65      H      0.305210000000     0.437720000000     0.008710000000     0.0176079  
H66      H      0.229820000000     0.213910000000     0.086950000000     0.0577626  
H67      H      0.217300000000     0.351470000000     0.014880000000     0.0582924  
H68      H      0.237620000000     0.230750000000     0.943700000000     0.0590207  
H69      H      0.370510000000     0.221460000000     0.020260000000     0.0829957  
H70      H      0.148960000000     0.123250000000     0.079640000000     0.0321989  
N1       N      0.491970000000     0.479050000000     0.870680000000    -0.217175   
N2       N      0.507480000000     0.456470000000     0.633590000000    -0.204477   
N3       N      0.516920000000     0.490410000000     0.133180000000    -0.216571   
N4       N      0.517140000000     0.476980000000     0.371410000000    -0.204373   
N5       N      0.148880000000     0.833180000000     0.507340000000    -0.199221   
N6       N      0.383020000000     0.596340000000     0.506510000000    -0.198775   
N7       N      0.860890000000     0.833470000000     0.518710000000    -0.211832   
N8       N      0.632080000000     0.573490000000     0.509480000000    -0.263234   
N9       N      0.874940000000     0.095460000000     0.510290000000    -0.200281   
N10      N      0.644300000000     0.335710000000     0.502140000000    -0.198409   
N11      N      0.163440000000     0.098800000000     0.500650000000    -0.209316   
N12      N      0.393760000000     0.359390000000     0.494860000000    -0.263343   
N13      N      0.140940000000     0.854810000000     0.996370000000    -0.200101   
N14      N      0.373940000000     0.617070000000     0.003900000000    -0.19935    
N15      N      0.855620000000     0.852440000000     0.983010000000    -0.212507   
N16      N      0.623190000000     0.595930000000     0.993930000000    -0.257902   
N17      N      0.867430000000     0.117290000000     0.993830000000    -0.201259   
N18      N      0.640430000000     0.360110000000     0.999220000000    -0.181719   
N19      N      0.385120000000     0.378080000000     0.010840000000    -0.272535   
N20      N      0.147450000000     0.125570000000     0.007820000000    -0.195377   
O1       O      0.077960000000     0.924570000000     0.958800000000    -0.366182   
O2       O      0.940430000000     0.056520000000     0.957010000000    -0.383173   
O3       O      0.082060000000     0.057870000000     0.964510000000    -0.401844   
O4       O      0.934840000000     0.920760000000     0.951030000000    -0.400352   
O5       O      0.924110000000     0.917080000000     0.025250000000    -0.391875   
O6       O      0.073710000000     0.050670000000     0.038570000000    -0.405139   
O7       O      0.930130000000     0.048170000000     0.030930000000    -0.368504   
O8       O      0.067170000000     0.916150000000     0.032390000000    -0.386403   
O9       O      0.077710000000     0.897580000000     0.471720000000    -0.366851   
O10      O      0.939450000000     0.027770000000     0.473370000000    -0.369398   
O11      O      0.083920000000     0.030730000000     0.467960000000    -0.400694   
O12      O      0.933340000000     0.896660000000     0.477570000000    -0.388278   
O13      O      0.939490000000     0.900890000000     0.551960000000    -0.403903   
O14      O      0.092290000000     0.032760000000     0.541890000000    -0.385242   
O15      O      0.949550000000     0.036120000000     0.547270000000    -0.379368   
O16      O      0.082170000000     0.898790000000     0.545820000000    -0.379381   
O17      O      0.535540000000     0.521960000000     0.935790000000    -0.453942   
O18      O      0.551800000000     0.526660000000     0.063690000000    -0.450019   
O19      O      0.611830000000     0.462250000000     0.996360000000    -0.449789   
O20      O      0.482040000000     0.587460000000     0.002020000000    -0.455633   
O21      O      0.399770000000     0.513920000000     0.005330000000    -0.461134   
O22      O      0.529870000000     0.387590000000     0.004310000000    -0.387863   
O23      O      0.470590000000     0.451950000000     0.067810000000    -0.471448   
O24      O      0.458770000000     0.443000000000     0.940180000000    -0.465494   
O25      O      0.562000000000     0.503230000000     0.440040000000    -0.472458   
O26      O      0.552730000000     0.494310000000     0.567740000000    -0.476196   
O27      O      0.620790000000     0.439320000000     0.503900000000    -0.455748   
O28      O      0.490900000000     0.565150000000     0.502760000000    -0.45859    
O29      O      0.406820000000     0.492880000000     0.506170000000    -0.456234   
O30      O      0.536440000000     0.367270000000     0.499620000000    -0.458353   
O31      O      0.466550000000     0.424320000000     0.564970000000    -0.468498   
O32      O      0.469990000000     0.440350000000     0.437150000000    -0.474769   


