data_structure

_audit_creation_method RASPA-1.0
_audit_creation_date 2023-6-4
_audit_author_name 'Poobodin Mano'

_cell_length_a    20.8387
_cell_length_b    20.5254
_cell_length_c    29.8826
_cell_angle_alpha 89.9989
_cell_angle_beta  89.9989
_cell_angle_gamma 94.75
_cell_volume      12737.6

_symmetry_cell_setting          triclinic
_symmetry_space_group_name_Hall 'P 1'
_symmetry_space_group_name_H-M  'P 1'
_symmetry_Int_Tables_number     1

_symmetry_equiv_pos_as_xyz 'x,y,z'

loop_
_atom_site_label
_atom_site_type_symbol
_atom_site_fract_x
_atom_site_fract_y
_atom_site_fract_z
_atom_site_charge
C1       C      0.080230000000     0.927180000000     0.996840000000     0.397177   
C2       C      0.896340000000     0.096950000000     0.998090000000     0.397166   
C3       C      0.076100000000     0.112480000000     0.001060000000     0.412844   
C4       C      0.900550000000     0.911440000000     0.993910000000     0.412888   
C5       C      0.080070000000     0.893910000000     0.514050000000     0.39854    
C6       C      0.914310000000     0.082330000000     0.512400000000     0.397565   
C7       C      0.095470000000     0.077420000000     0.508560000000     0.415559   
C8       C      0.896600000000     0.901610000000     0.518810000000     0.413837   
C9       C      0.485520000000     0.505520000000     0.913140000000     0.462761   
C10      C      0.489440000000     0.520070000000     0.084390000000     0.471934   
C11      C      0.579160000000     0.433130000000     0.998900000000     0.448981   
C12      C      0.397300000000     0.590550000000     0.995780000000     0.448248   
C13      C      0.505610000000     0.498600000000     0.414100000000     0.466102   
C14      C      0.485440000000     0.478630000000     0.584550000000     0.462773   
C15      C      0.586750000000     0.406510000000     0.500730000000     0.462639   
C16      C      0.421700000000     0.582140000000     0.500420000000     0.443339   
C17      C      0.539950000000     0.469220000000     0.654510000000     0.151089   
C18      C      0.429170000000     0.489800000000     0.652640000000     0.0728001  
C19      C      0.539890000000     0.475300000000     0.701370000000    -0.126238   
C20      C      0.529960000000     0.533970000000     0.795580000000    -0.0861923  
C21      C      0.427480000000     0.493800000000     0.699270000000    -0.0988738  
C22      C      0.483100000000     0.492920000000     0.773570000000     0.0258952  
C23      C      0.483360000000     0.487100000000     0.724080000000     0.0490922  
C24      C      0.529520000000     0.538350000000     0.842250000000     0.0667386  
C25      C      0.438280000000     0.461410000000     0.845890000000     0.0669752  
C26      C      0.436580000000     0.456850000000     0.799220000000    -0.0863569  
C27      C      0.601900000000     0.453300000000     0.632040000000    -0.219165   
C28      C      0.436540000000     0.499520000000     0.155580000000     0.152467   
C29      C      0.543670000000     0.549400000000     0.151930000000     0.0759753  
C30      C      0.440990000000     0.497560000000     0.202470000000    -0.125233   
C31      C      0.469640000000     0.461200000000     0.296610000000    -0.0859768  
C32      C      0.549200000000     0.547310000000     0.198550000000    -0.0968247  
C33      C      0.503230000000     0.513610000000     0.274310000000     0.0277807  
C34      C      0.497990000000     0.519850000000     0.224540000000     0.0495137  
C35      C      0.471300000000     0.457160000000     0.343110000000     0.0720422  
C36      C      0.542620000000     0.552980000000     0.346950000000     0.0703721  
C37      C      0.540730000000     0.559500000000     0.300230000000    -0.0843708  
C38      C      0.371810000000     0.477830000000     0.134920000000    -0.216919   
C39      C      0.145550000000     0.816390000000     0.552010000000     0.145022   
C40      C      0.152360000000     0.832180000000     0.473360000000     0.0690235  
C41      C      0.194510000000     0.772540000000     0.549300000000    -0.120253   
C42      C      0.328040000000     0.723560000000     0.476650000000    -0.0833301  
C43      C      0.200700000000     0.788730000000     0.470150000000    -0.0928168  
C44      C      0.275130000000     0.711800000000     0.505560000000     0.0267227  
C45      C      0.222930000000     0.758300000000     0.508330000000     0.0461604  
C46      C      0.376740000000     0.680090000000     0.475120000000     0.0649357  
C47      C      0.321710000000     0.611970000000     0.528850000000     0.0692557  
C48      C      0.272420000000     0.654570000000     0.531540000000    -0.0838975  
C49      C      0.116690000000     0.825900000000     0.597820000000    -0.216      
C50      C      0.583060000000     0.661780000000     0.517310000000     0.046454   
C51      C      0.673360000000     0.597580000000     0.516790000000     0.076002   
C52      C      0.623480000000     0.718890000000     0.523530000000    -0.0754137  
C53      C      0.756140000000     0.796610000000     0.484380000000    -0.0908057  
C54      C      0.715000000000     0.652750000000     0.523430000000    -0.0876843  
C55      C      0.735000000000     0.771430000000     0.525550000000     0.037252   
C56      C      0.689930000000     0.713740000000     0.525990000000     0.0285383  
C57      C      0.810070000000     0.840810000000     0.482810000000     0.0725633  
C58      C      0.819270000000     0.837980000000     0.562110000000     0.0716072  
C59      C      0.765920000000     0.792800000000     0.564810000000    -0.0911009  
C60      C      0.510940000000     0.661730000000     0.514120000000     0.0749304  
C61      C      0.616350000000     0.294930000000     0.489430000000     0.147768   
C62      C      0.692420000000     0.378070000000     0.517110000000     0.0717594  
C63      C      0.663740000000     0.249550000000     0.492120000000    -0.123948   
C64      C      0.790730000000     0.185600000000     0.470960000000    -0.082213   
C65      C      0.739530000000     0.333400000000     0.520700000000    -0.0973091  
C66      C      0.776160000000     0.220660000000     0.509310000000     0.0251121  
C67      C      0.725720000000     0.268400000000     0.507830000000     0.0485177  
C68      C      0.837920000000     0.140770000000     0.472470000000     0.0658556  
C69      C      0.855730000000     0.162630000000     0.549450000000     0.0651727  
C70      C      0.809870000000     0.209240000000     0.548780000000    -0.0818508  
C71      C      0.551490000000     0.270170000000     0.470390000000    -0.216004   
C72      C      0.368210000000     0.360280000000     0.533770000000     0.0420715  
C73      C      0.373260000000     0.344300000000     0.455060000000     0.0761698  
C74      C      0.319740000000     0.309530000000     0.537690000000    -0.0719995  
C75      C      0.236220000000     0.184120000000     0.540220000000    -0.0899015  
C76      C      0.327180000000     0.291830000000     0.457580000000    -0.0868807  
C77      C      0.245940000000     0.222040000000     0.501460000000     0.0373377  
C78      C      0.298320000000     0.274980000000     0.499010000000     0.0272045  
C79      C      0.185040000000     0.136420000000     0.542240000000     0.0729623  
C80      C      0.155760000000     0.159380000000     0.467440000000     0.0733344  
C81      C      0.204510000000     0.209410000000     0.464960000000    -0.0894431  
C82      C      0.398370000000     0.395600000000     0.573650000000     0.0883088  
C83      C      0.354480000000     0.683600000000     0.961010000000     0.148443   
C84      C      0.307130000000     0.637740000000     0.027390000000     0.0711269  
C85      C      0.310780000000     0.732730000000     0.961720000000    -0.122805   
C86      C      0.193450000000     0.810350000000     0.036010000000    -0.0811193  
C87      C      0.262500000000     0.685250000000     0.028250000000    -0.0959697  
C88      C      0.216080000000     0.785560000000     0.995660000000     0.0252918  
C89      C      0.263550000000     0.733870000000     0.995190000000     0.0479824  
C90      C      0.148590000000     0.857830000000     0.035800000000     0.065381   
C91      C      0.147920000000     0.858480000000     0.956690000000     0.0652112  
C92      C      0.192490000000     0.810740000000     0.955700000000    -0.0812102  
C93      C      0.402430000000     0.684290000000     0.922930000000    -0.218961   
C94      C      0.655020000000     0.600020000000     0.991280000000     0.0460636  
C95      C      0.589580000000     0.690220000000     0.991900000000     0.078338   
C96      C      0.710880000000     0.642500000000     0.988980000000    -0.0742444  
C97      C      0.786790000000     0.777490000000     0.030140000000    -0.0904089  
C98      C      0.643760000000     0.734040000000     0.989510000000    -0.0875007  
C99      C      0.761220000000     0.756190000000     0.989150000000     0.0372349  
C100     C      0.704640000000     0.709910000000     0.988360000000     0.0285035  
C101     C      0.834350000000     0.828980000000     0.031090000000     0.0721543  
C102     C      0.832630000000     0.836040000000     0.951660000000     0.0718065  
C103     C      0.784670000000     0.784880000000     0.949560000000    -0.0906156  
C104     C      0.656400000000     0.526460000000     0.992560000000     0.075142   
C105     C      0.620320000000     0.338410000000     0.965350000000     0.148442   
C106     C      0.670390000000     0.387030000000     0.030000000000     0.070311   
C107     C      0.664250000000     0.289540000000     0.965990000000    -0.122935   
C108     C      0.784620000000     0.214820000000     0.958460000000    -0.0815086  
C109     C      0.714950000000     0.339390000000     0.030970000000    -0.0953491  
C110     C      0.760500000000     0.238490000000     0.998670000000     0.0253566  
C111     C      0.712730000000     0.289740000000     0.998610000000     0.0477837  
C112     C      0.829390000000     0.167320000000     0.958900000000     0.0652715  
C113     C      0.827450000000     0.164860000000     0.038000000000     0.0652592  
C114     C      0.782710000000     0.212520000000     0.038760000000    -0.0811892  
C115     C      0.570660000000     0.336050000000     0.928290000000    -0.218991   
C116     C      0.322040000000     0.423180000000     0.998980000000     0.043597   
C117     C      0.387480000000     0.334830000000     0.011860000000     0.0767479  
C118     C      0.266390000000     0.380300000000     0.999350000000    -0.0742332  
C119     C      0.195890000000     0.235050000000     0.045330000000    -0.0906431  
C120     C      0.333360000000     0.290810000000     0.013450000000    -0.0879376  
C121     C      0.216350000000     0.266870000000     0.006060000000     0.0370732  
C122     C      0.272610000000     0.313700000000     0.006710000000     0.0274585  
C123     C      0.147400000000     0.184500000000     0.043230000000     0.07208    
C124     C      0.139820000000     0.197390000000     0.964360000000     0.0721132  
C125     C      0.187380000000     0.248950000000     0.965410000000    -0.0903099  
C126     C      0.320560000000     0.496310000000     0.993410000000     0.077527   
Cu1      Cu     0.989500000000     0.014140000000     0.956230000000     0.843045   
Cu2      Cu     0.987030000000     0.009920000000     0.038720000000     0.844262   
Cu3      Cu     0.994570000000     0.985660000000     0.472370000000     0.850643   
Cu4      Cu     0.999580000000     0.991070000000     0.554700000000     0.837431   
Cu5      Cu     0.532780000000     0.561440000000     0.996820000000     1.14089    
Cu6      Cu     0.444160000000     0.462830000000     0.000810000000     1.15974    
Cu7      Cu     0.548550000000     0.537130000000     0.503470000000     1.13723    
Cu8      Cu     0.453400000000     0.444410000000     0.496060000000     1.16243    
H1       H      0.566610000000     0.570790000000     0.857970000000     0.0236647  
H2       H      0.386240000000     0.500270000000     0.634450000000     0.0102595  
H3       H      0.399780000000     0.424340000000     0.783350000000     0.0481762  
H4       H      0.383210000000     0.504480000000     0.715710000000     0.0512115  
H5       H      0.566480000000     0.562970000000     0.776790000000     0.0486822  
H6       H      0.583570000000     0.469630000000     0.720190000000     0.0584504  
H7       H      0.401720000000     0.432140000000     0.864530000000     0.0238623  
H8       H      0.627160000000     0.498550000000     0.618080000000     0.084974   
H9       H      0.634850000000     0.431520000000     0.656000000000     0.0697854  
H10      H      0.591820000000     0.417010000000     0.604850000000     0.0796     
H11      H      0.443800000000     0.416000000000     0.358520000000     0.0216571  
H12      H      0.585490000000     0.569210000000     0.133260000000     0.0228542  
H13      H      0.567340000000     0.601160000000     0.284850000000     0.0487412  
H14      H      0.594330000000     0.565290000000     0.213810000000     0.0519407  
H15      H      0.441970000000     0.422890000000     0.278390000000     0.0483589  
H16      H      0.399210000000     0.479430000000     0.221710000000     0.0584727  
H17      H      0.571380000000     0.589920000000     0.365790000000     0.0247581  
H18      H      0.372820000000     0.427960000000     0.120680000000     0.0870204  
H19      H      0.332320000000     0.476390000000     0.159980000000     0.0693275  
H20      H      0.359270000000     0.512720000000     0.108540000000     0.0827015  
H21      H      0.414750000000     0.689390000000     0.450700000000     0.0138018  
H22      H      0.138120000000     0.854320000000     0.442350000000     0.0261067  
H23      H      0.231940000000     0.642080000000     0.553500000000     0.0482449  
H24      H      0.220160000000     0.778710000000     0.437490000000     0.0516981  
H25      H      0.332130000000     0.766330000000     0.455300000000     0.0481667  
H26      H      0.210940000000     0.749820000000     0.579490000000     0.0566248  
H27      H      0.317640000000     0.568410000000     0.549580000000     0.0200064  
H28      H      0.063460000000     0.816800000000     0.596400000000     0.0853745  
H29      H      0.133530000000     0.791160000000     0.622910000000     0.0686348  
H30      H      0.130920000000     0.876000000000     0.610220000000     0.0844301  
H31      H      0.826250000000     0.858300000000     0.450130000000     0.0249819  
H32      H      0.692570000000     0.550550000000     0.513840000000     0.0155443  
H33      H      0.750710000000     0.772620000000     0.596990000000     0.0510937  
H34      H      0.766440000000     0.648330000000     0.524890000000     0.0512685  
H35      H      0.733210000000     0.779530000000     0.453500000000     0.0529167  
H36      H      0.603840000000     0.766110000000     0.525200000000     0.0446753  
H37      H      0.843320000000     0.852800000000     0.593090000000     0.0235191  
H38      H      0.503280000000     0.663880000000     0.550940000000     0.0164824  
H39      H      0.480560000000     0.702100000000     0.522040000000     0.00570992 
H40      H      0.510980000000     0.690210000000     0.482550000000     0.0155115  
H41      H      0.847350000000     0.115040000000     0.441790000000     0.0262629  
H42      H      0.706060000000     0.427830000000     0.527690000000     0.0202221  
H43      H      0.799990000000     0.235290000000     0.579210000000     0.048054   
H44      H      0.787070000000     0.350090000000     0.532820000000     0.0522081  
H45      H      0.766120000000     0.193230000000     0.439690000000     0.0493528  
H46      H      0.652350000000     0.199240000000     0.481880000000     0.0589287  
H47      H      0.880010000000     0.154730000000     0.580830000000     0.025361   
H48      H      0.537980000000     0.302060000000     0.442480000000     0.0838282  
H49      H      0.551920000000     0.220050000000     0.456410000000     0.069532   
H50      H      0.514310000000     0.268270000000     0.497070000000     0.0859468  
H51      H      0.178640000000     0.108290000000     0.572880000000     0.0230275  
H52      H      0.395340000000     0.357150000000     0.423270000000     0.013042   
H53      H      0.208550000000     0.238500000000     0.434730000000     0.0506395  
H54      H      0.314850000000     0.264670000000     0.427320000000     0.0476652  
H55      H      0.267900000000     0.190560000000     0.568850000000     0.0488532  
H56      H      0.299320000000     0.298080000000     0.570330000000     0.0418512  
H57      H      0.124600000000     0.151270000000     0.438550000000     0.0244751  
H58      H      0.355690000000     0.421980000000     0.582520000000     0.0138528  
H59      H      0.390130000000     0.384820000000     0.609650000000     0.00199995 
H60      H      0.427910000000     0.355270000000     0.583760000000     0.0116815  
H61      H      0.132700000000     0.875040000000     0.067920000000     0.0263553  
H62      H      0.306700000000     0.603810000000     0.055180000000     0.00838861 
H63      H      0.207320000000     0.792910000000     0.923540000000     0.0469912  
H64      H      0.227400000000     0.683670000000     0.055010000000     0.0507779  
H65      H      0.210710000000     0.793810000000     0.067880000000     0.048168   
H66      H      0.314190000000     0.770330000000     0.936190000000     0.0577402  
H67      H      0.131010000000     0.875740000000     0.924860000000     0.0256644  
H68      H      0.406780000000     0.633970000000     0.910280000000     0.0808209  
H69      H      0.387200000000     0.713710000000     0.894200000000     0.0703923  
H70      H      0.450170000000     0.705750000000     0.934530000000     0.0842263  
H71      H      0.852460000000     0.845240000000     0.063580000000     0.0253024  
H72      H      0.542190000000     0.707870000000     0.993420000000     0.0117201  
H73      H      0.764710000000     0.769190000000     0.917460000000     0.0514992  
H74      H      0.638510000000     0.786140000000     0.989340000000     0.0516296  
H75      H      0.768540000000     0.756000000000     0.061230000000     0.0528069  
H76      H      0.757920000000     0.623590000000     0.988340000000     0.0445622  
H77      H      0.849210000000     0.858190000000     0.920350000000     0.0246862  
H78      H      0.663810000000     0.521110000000     0.955910000000     0.0162148  
H79      H      0.698070000000     0.497150000000     0.986900000000     0.00568622 
H80      H      0.680050000000     0.524690000000     0.025800000000     0.0159974  
H81      H      0.846690000000     0.151260000000     0.926860000000     0.0257284  
H82      H      0.672240000000     0.422560000000     0.056900000000     0.012049   
H83      H      0.765110000000     0.228270000000     0.070750000000     0.0484718  
H84      H      0.751110000000     0.341750000000     0.057070000000     0.0512534  
H85      H      0.769920000000     0.233660000000     0.926540000000     0.0472707  
H86      H      0.660170000000     0.251070000000     0.941060000000     0.0579514  
H87      H      0.842990000000     0.146510000000     0.069890000000     0.0263029  
H88      H      0.566780000000     0.385620000000     0.914180000000     0.0808786  
H89      H      0.583830000000     0.304260000000     0.900220000000     0.0705734  
H90      H      0.523130000000     0.316450000000     0.941480000000     0.0855036  
H91      H      0.133150000000     0.160050000000     0.074270000000     0.0251248  
H92      H      0.434860000000     0.318110000000     0.016520000000     0.0121841  
H93      H      0.203140000000     0.272920000000     0.934530000000     0.0516439  
H94      H      0.338710000000     0.239380000000     0.019070000000     0.0510738  
H95      H      0.218250000000     0.248230000000     0.077170000000     0.0511442  
H96      H      0.219490000000     0.398400000000     0.994450000000     0.043969   
H97      H      0.119070000000     0.183630000000     0.932100000000     0.0247521  
H98      H      0.314370000000     0.494440000000     0.956440000000     0.0161498  
H99      H      0.279550000000     0.524900000000     0.984220000000     0.00565017 
H100     H      0.295370000000     0.503530000000     0.025530000000     0.0117995  
N1       N      0.484280000000     0.476540000000     0.630460000000    -0.221512   
N2       N      0.484390000000     0.501880000000     0.867270000000    -0.206099   
N3       N      0.489240000000     0.523160000000     0.130370000000    -0.21962    
N4       N      0.506980000000     0.502930000000     0.368240000000    -0.20461    
N5       N      0.125230000000     0.847510000000     0.513740000000    -0.202059   
N6       N      0.374780000000     0.625900000000     0.502220000000    -0.200732   
N7       N      0.609250000000     0.603840000000     0.513150000000    -0.262752   
N8       N      0.842190000000     0.860130000000     0.521290000000    -0.197009   
N9       N      0.630970000000     0.359630000000     0.502190000000    -0.21681    
N10      N      0.869820000000     0.128610000000     0.511520000000    -0.189096   
N11      N      0.391060000000     0.377720000000     0.492780000000    -0.264503   
N12      N      0.145540000000     0.124110000000     0.506030000000    -0.197725   
N13      N      0.351950000000     0.635880000000     0.993820000000    -0.216996   
N14      N      0.125620000000     0.881710000000     0.996440000000    -0.188709   
N15      N      0.596990000000     0.625270000000     0.992920000000    -0.264714   
N16      N      0.856130000000     0.858820000000     0.992190000000    -0.196126   
N17      N      0.624240000000     0.387500000000     0.997210000000    -0.21672    
N18      N      0.851010000000     0.142500000000     0.998360000000    -0.188735   
N19      N      0.380070000000     0.398860000000     0.004320000000    -0.267269   
N20      N      0.120820000000     0.164810000000     0.002890000000    -0.196176   
O1       O      0.059700000000     0.949900000000     0.959780000000    -0.390563   
O2       O      0.919070000000     0.077760000000     0.960720000000    -0.391649   
O3       O      0.056260000000     0.090260000000     0.962940000000    -0.404401   
O4       O      0.922260000000     0.937860000000     0.957470000000    -0.405021   
O5       O      0.920010000000     0.934120000000     0.032000000000    -0.405095   
O6       O      0.054600000000     0.085800000000     0.037470000000    -0.404708   
O7       O      0.916950000000     0.074400000000     0.035180000000    -0.390412   
O8       O      0.057370000000     0.946110000000     0.034240000000    -0.39067    
O9       O      0.058750000000     0.915350000000     0.476820000000    -0.391836   
O10      O      0.931130000000     0.055950000000     0.475650000000    -0.394053   
O11      O      0.068200000000     0.055450000000     0.472530000000    -0.406465   
O12      O      0.920220000000     0.917910000000     0.480400000000    -0.407082   
O13      O      0.922900000000     0.924810000000     0.554820000000    -0.407267   
O14      O      0.075700000000     0.056680000000     0.546980000000    -0.406777   
O15      O      0.938170000000     0.064410000000     0.549820000000    -0.388632   
O16      O      0.060560000000     0.917650000000     0.551000000000    -0.39526    
O17      O      0.524730000000     0.546570000000     0.932910000000    -0.474064   
O18      O      0.526940000000     0.559170000000     0.061620000000    -0.470364   
O19      O      0.594920000000     0.495530000000     0.999480000000    -0.485112   
O20      O      0.456770000000     0.611110000000     0.994040000000    -0.465636   
O21      O      0.381840000000     0.528300000000     0.999090000000    -0.489638   
O22      O      0.519650000000     0.412670000000     0.998820000000    -0.469049   
O23      O      0.453520000000     0.476740000000     0.064210000000    -0.485083   
O24      O      0.447620000000     0.467570000000     0.936330000000    -0.477059   
O25      O      0.544410000000     0.534860000000     0.438100000000    -0.464624   
O26      O      0.529510000000     0.515580000000     0.565740000000    -0.476563   
O27      O      0.605550000000     0.466930000000     0.502130000000    -0.468676   
O28      O      0.482790000000     0.599930000000     0.502600000000    -0.479736   
O29      O      0.403590000000     0.521220000000     0.498300000000    -0.45634    
O30      O      0.526590000000     0.390400000000     0.499120000000    -0.478138   
O31      O      0.444240000000     0.444840000000     0.559980000000    -0.50144    
O32      O      0.464550000000     0.458500000000     0.432970000000    -0.483373   


