data_structure

_audit_creation_method RASPA-1.0
_audit_creation_date 2023-6-4
_audit_author_name 'Poobodin Mano'

_cell_length_a    20.3585
_cell_length_b    21.1524
_cell_length_c    29.9744
_cell_angle_alpha 89.9989
_cell_angle_beta  89.9989
_cell_angle_gamma 94.7492
_cell_volume      12863.6

_symmetry_cell_setting          triclinic
_symmetry_space_group_name_Hall 'P 1'
_symmetry_space_group_name_H-M  'P 1'
_symmetry_Int_Tables_number     1

_symmetry_equiv_pos_as_xyz 'x,y,z'

loop_
_atom_site_label
_atom_site_type_symbol
_atom_site_fract_x
_atom_site_fract_y
_atom_site_fract_z
_atom_site_charge
C1       C      0.088350000000     0.885980000000     0.006580000000     0.392658   
C2       C      0.924050000000     0.074380000000     0.005590000000     0.397231   
C3       C      0.113540000000     0.060410000000     0.004290000000     0.421443   
C4       C      0.900680000000     0.901110000000     0.008050000000     0.419504   
C5       C      0.085040000000     0.904750000000     0.492170000000     0.398501   
C6       C      0.895480000000     0.069480000000     0.496010000000     0.392291   
C7       C      0.075270000000     0.089010000000     0.489910000000     0.422277   
C8       C      0.905190000000     0.888570000000     0.498350000000     0.416519   
C9       C      0.502540000000     0.486150000000     0.917860000000     0.475393   
C10      C      0.509720000000     0.475400000000     0.088240000000     0.476303   
C11      C      0.598890000000     0.402200000000     0.999560000000     0.454304   
C12      C      0.418400000000     0.562400000000     0.002740000000     0.458015   
C13      C      0.495780000000     0.489070000000     0.416990000000     0.472189   
C14      C      0.489380000000     0.481570000000     0.587390000000     0.476409   
C15      C      0.572550000000     0.399670000000     0.498190000000     0.460302   
C16      C      0.406480000000     0.573360000000     0.499330000000     0.455683   
C17      C      0.542870000000     0.529880000000     0.846480000000     0.183103   
C18      C      0.453600000000     0.450170000000     0.849810000000     0.0759141  
C19      C      0.545330000000     0.522090000000     0.799940000000    -0.133925   
C20      C      0.522000000000     0.533320000000     0.702140000000    -0.0845164  
C21      C      0.450750000000     0.447110000000     0.803310000000    -0.0990547  
C22      C      0.494660000000     0.481480000000     0.727190000000     0.0265313  
C23      C      0.497540000000     0.482590000000     0.777340000000     0.0537438  
C24      C      0.520800000000     0.531630000000     0.655730000000     0.0719033  
C25      C      0.460800000000     0.430910000000     0.656780000000     0.0718559  
C26      C      0.463870000000     0.429650000000     0.703510000000    -0.0836608  
C27      C      0.568240000000     0.486970000000     0.158640000000     0.184219   
C28      C      0.452440000000     0.459640000000     0.156210000000     0.0779087  
C29      C      0.564720000000     0.493020000000     0.205310000000    -0.135081   
C30      C      0.542050000000     0.529460000000     0.301490000000    -0.0842909  
C31      C      0.448320000000     0.463910000000     0.202520000000    -0.100126   
C32      C      0.501570000000     0.484550000000     0.277470000000     0.0262701  
C33      C      0.504680000000     0.481350000000     0.227780000000     0.0543645  
C34      C      0.539700000000     0.530350000000     0.348120000000     0.0713163  
C35      C      0.457200000000     0.444470000000     0.348010000000     0.0708815  
C36      C      0.458860000000     0.441760000000     0.301520000000    -0.0849568  
C37      C      0.128210000000     0.810790000000     0.459100000000     0.177226   
C38      C      0.174870000000     0.856990000000     0.525370000000     0.0713616  
C39      C      0.176180000000     0.765840000000     0.459570000000    -0.12897    
C40      C      0.250280000000     0.650500000000     0.491180000000    -0.0823146  
C41      C      0.222380000000     0.812290000000     0.526490000000    -0.0949353  
C42      C      0.271640000000     0.715120000000     0.495260000000     0.0252096  
C43      C      0.223440000000     0.765540000000     0.493500000000     0.0505288  
C44      C      0.295700000000     0.603800000000     0.493210000000     0.0676608  
C45      C      0.383780000000     0.683000000000     0.501610000000     0.0666256  
C46      C      0.339460000000     0.730780000000     0.500920000000    -0.082207   
C47      C      0.612110000000     0.647130000000     0.535390000000     0.18923    
C48      C      0.662350000000     0.585170000000     0.480460000000     0.0693606  
C49      C      0.667850000000     0.689860000000     0.535790000000    -0.138002   
C50      C      0.795330000000     0.753410000000     0.463740000000    -0.0862203  
C51      C      0.718240000000     0.627080000000     0.479990000000    -0.0946962  
C52      C      0.775740000000     0.728490000000     0.505170000000     0.0279706  
C53      C      0.720830000000     0.679990000000     0.507820000000     0.0543278  
C54      C      0.839590000000     0.806680000000     0.462030000000     0.070751   
C55      C      0.847210000000     0.808510000000     0.541230000000     0.0716021  
C56      C      0.803200000000     0.755200000000     0.544150000000    -0.0865236  
C57      C      0.601840000000     0.294880000000     0.474770000000     0.180919   
C58      C      0.678070000000     0.364750000000     0.514730000000     0.0739569  
C59      C      0.646710000000     0.247170000000     0.476830000000    -0.131315   
C60      C      0.770990000000     0.175610000000     0.458230000000    -0.0800063  
C61      C      0.723460000000     0.318050000000     0.516600000000    -0.0968705  
C62      C      0.757060000000     0.208170000000     0.497500000000     0.0233837  
C63      C      0.708260000000     0.258150000000     0.497560000000     0.0522886  
C64      C      0.817220000000     0.129630000000     0.458330000000     0.0642509  
C65      C      0.835000000000     0.144750000000     0.535660000000     0.06308    
C66      C      0.790190000000     0.192160000000     0.536470000000    -0.0799452  
C67      C      0.121570000000     0.184660000000     0.524430000000     0.188476   
C68      C      0.151960000000     0.156530000000     0.450490000000     0.0805058  
C69      C      0.173940000000     0.231220000000     0.525600000000    -0.141299   
C70      C      0.272800000000     0.339790000000     0.461360000000    -0.0819362  
C71      C      0.202020000000     0.205020000000     0.450010000000    -0.10454    
C72      C      0.269830000000     0.288130000000     0.490470000000     0.0231282  
C73      C      0.214540000000     0.240560000000     0.488540000000     0.0600378  
C74      C      0.324380000000     0.386330000000     0.465690000000     0.0702125  
C75      C      0.369730000000     0.330110000000     0.525550000000     0.0708193  
C76      C      0.318520000000     0.283030000000     0.522860000000    -0.0814052  
C77      C      0.311660000000     0.595900000000     0.979500000000     0.181108   
C78      C      0.385390000000     0.664070000000     0.022620000000     0.074343   
C79      C      0.263680000000     0.640560000000     0.982570000000    -0.131166   
C80      C      0.193800000000     0.763250000000     0.966880000000    -0.0797747  
C81      C      0.338610000000     0.709390000000     0.025390000000    -0.0970925  
C82      C      0.226710000000     0.747160000000     0.005950000000     0.0232262  
C83      C      0.276620000000     0.698180000000     0.005250000000     0.0521854  
C84      C      0.147940000000     0.809550000000     0.967690000000     0.064323   
C85      C      0.163850000000     0.823540000000     0.045270000000     0.0632868  
C86      C      0.211150000000     0.778420000000     0.045420000000    -0.0799113  
C87      C      0.804810000000     0.849520000000     0.972370000000     0.186153   
C88      C      0.833590000000     0.824540000000     0.047160000000     0.0785864  
C89      C      0.760060000000     0.795900000000     0.971240000000    -0.139666   
C90      C      0.656440000000     0.693200000000     0.040360000000    -0.0809549  
C91      C      0.786960000000     0.773170000000     0.047570000000    -0.104071   
C92      C      0.705580000000     0.701320000000     0.007830000000     0.0226308  
C93      C      0.751950000000     0.757380000000     0.008800000000     0.0587425  
C94      C      0.612300000000     0.639890000000     0.038500000000     0.0692634  
C95      C      0.665660000000     0.602640000000     0.974170000000     0.0679473  
C96      C      0.710410000000     0.655740000000     0.974410000000    -0.0816693  
C97      C      0.830760000000     0.123190000000     0.038640000000     0.176875   
C98      C      0.878310000000     0.161640000000     0.970420000000     0.070559   
C99      C      0.787520000000     0.172350000000     0.037810000000    -0.129297   
C100     C      0.671570000000     0.248070000000     0.006390000000    -0.0826738  
C101     C      0.835150000000     0.210340000000     0.968910000000    -0.0948553  
C102     C      0.739120000000     0.265340000000     0.000710000000     0.0249596  
C103     C      0.788640000000     0.216180000000     0.002750000000     0.0502425  
C104     C      0.625530000000     0.294120000000     0.004960000000     0.0672327  
C105     C      0.711090000000     0.375080000000     0.993620000000     0.0669742  
C106     C      0.758360000000     0.329880000000     0.993700000000    -0.0819633  
C107     C      0.206930000000     0.114490000000     0.041210000000     0.187295   
C108     C      0.185120000000     0.132250000000     0.964250000000     0.0798291  
C109     C      0.251700000000     0.168040000000     0.041660000000    -0.138618   
C110     C      0.368920000000     0.260150000000     0.027840000000    -0.0805309  
C111     C      0.232450000000     0.183020000000     0.963220000000    -0.102935   
C112     C      0.310800000000     0.259400000000     0.002760000000     0.0242394  
C113     C      0.264080000000     0.202910000000     0.002600000000     0.0585104  
C114     C      0.411830000000     0.314370000000     0.028040000000     0.070222   
C115     C      0.342400000000     0.366000000000     0.978560000000     0.0736099  
C116     C      0.297290000000     0.313200000000     0.978110000000    -0.0819512  
Cu1      Cu     0.006240000000     0.979870000000     0.964980000000     0.841007   
Cu2      Cu     0.007810000000     0.981960000000     0.047140000000     0.842235   
Cu3      Cu     0.988050000000     0.986580000000     0.452950000000     0.841774   
Cu4      Cu     0.994460000000     0.989590000000     0.535100000000     0.846244   
Cu5      Cu     0.556430000000     0.528280000000     0.003870000000     1.15129    
Cu6      Cu     0.458830000000     0.434050000000     0.002660000000     1.15263    
Cu7      Cu     0.541250000000     0.533580000000     0.503420000000     1.15305    
Cu8      Cu     0.439810000000     0.441330000000     0.501090000000     1.16445    
H1       H      0.543290000000     0.572760000000     0.638240000000     0.0225786  
H2       H      0.417170000000     0.419740000000     0.867810000000     0.0229595  
H3       H      0.442750000000     0.387730000000     0.720550000000     0.0484791  
H4       H      0.411360000000     0.416970000000     0.788230000000     0.051917   
H5       H      0.543660000000     0.576140000000     0.717750000000     0.0473062  
H6       H      0.583070000000     0.550060000000     0.781550000000     0.0620974  
H7       H      0.436590000000     0.390070000000     0.639850000000     0.023408   
H8       H      0.570760000000     0.601130000000     0.894580000000     0.106805   
H9       H      0.614630000000     0.607180000000     0.844460000000     0.0853817  
H10      H      0.571950000000     0.565740000000     0.365330000000     0.0251304  
H11      H      0.406780000000     0.448020000000     0.138220000000     0.0245941  
H12      H      0.427550000000     0.405340000000     0.284720000000     0.0485967  
H13      H      0.400580000000     0.454870000000     0.218240000000     0.0534288  
H14      H      0.575160000000     0.564180000000     0.284460000000     0.0490467  
H15      H      0.609740000000     0.503160000000     0.224210000000     0.06289    
H16      H      0.423530000000     0.410120000000     0.365060000000     0.0233303  
H17      H      0.637980000000     0.474020000000     0.107360000000     0.108229   
H18      H      0.671660000000     0.500560000000     0.158770000000     0.0879123  
H19      H      0.276500000000     0.554620000000     0.490180000000     0.0251244  
H20      H      0.176850000000     0.892280000000     0.551700000000     0.0240859  
H21      H      0.358460000000     0.779940000000     0.504080000000     0.0494348  
H22      H      0.257570000000     0.813790000000     0.553650000000     0.0528374  
H23      H      0.198380000000     0.635890000000     0.487040000000     0.0495239  
H24      H      0.175030000000     0.729390000000     0.434080000000     0.0624485  
H25      H      0.435710000000     0.697790000000     0.505670000000     0.0249709  
H26      H      0.079480000000     0.766580000000     0.404230000000     0.0871919  
H27      H      0.034920000000     0.824030000000     0.430110000000     0.10594    
H28      H      0.852650000000     0.825860000000     0.429370000000     0.023919   
H29      H      0.660130000000     0.544310000000     0.458700000000     0.018111   
H30      H      0.789130000000     0.736210000000     0.576670000000     0.0500641  
H31      H      0.758690000000     0.618610000000     0.457870000000     0.0519521  
H32      H      0.774220000000     0.733860000000     0.433020000000     0.0500436  
H33      H      0.668950000000     0.731750000000     0.556740000000     0.0641461  
H34      H      0.866640000000     0.828950000000     0.572180000000     0.0253817  
H35      H      0.563040000000     0.698330000000     0.583060000000     0.0871223  
H36      H      0.517010000000     0.629900000000     0.563770000000     0.10407    
H37      H      0.826570000000     0.106590000000     0.426930000000     0.0266437  
H38      H      0.692290000000     0.409850000000     0.530680000000     0.0235002  
H39      H      0.780920000000     0.215610000000     0.567700000000     0.0487136  
H40      H      0.770740000000     0.329220000000     0.532540000000     0.0532814  
H41      H      0.747090000000     0.186400000000     0.427190000000     0.0488183  
H42      H      0.634190000000     0.201780000000     0.460860000000     0.0630391  
H43      H      0.859090000000     0.134170000000     0.566700000000     0.0244863  
H44      H      0.536560000000     0.238690000000     0.433980000000     0.0880029  
H45      H      0.517570000000     0.318040000000     0.438190000000     0.108477   
H46      H      0.327160000000     0.427100000000     0.443800000000     0.0168831  
H47      H      0.146190000000     0.126800000000     0.421030000000     0.0230311  
H48      H      0.316880000000     0.243060000000     0.545570000000     0.0505507  
H49      H      0.232610000000     0.212740000000     0.420610000000     0.0553038  
H50      H      0.235110000000     0.344560000000     0.436330000000     0.0489445  
H51      H      0.181400000000     0.261890000000     0.554490000000     0.0664186  
H52      H      0.408340000000     0.326530000000     0.549970000000     0.0183847  
H53      H      0.082230000000     0.215100000000     0.584830000000     0.0875986  
H54      H      0.029220000000     0.159770000000     0.555250000000     0.104768   
H55      H      0.124650000000     0.820520000000     0.936430000000     0.0267539  
H56      H      0.432140000000     0.675000000000     0.039440000000     0.0214472  
H57      H      0.234820000000     0.767500000000     0.076530000000     0.0484975  
H58      H      0.351420000000     0.753530000000     0.042840000000     0.0528728  
H59      H      0.204280000000     0.740920000000     0.935440000000     0.0486284  
H60      H      0.216780000000     0.631140000000     0.965710000000     0.0629165  
H61      H      0.153620000000     0.846090000000     0.076700000000     0.0247347  
H62      H      0.253100000000     0.538040000000     0.935540000000     0.0871751  
H63      H      0.335050000000     0.517860000000     0.939780000000     0.106007   
H64      H      0.573240000000     0.633500000000     0.062940000000     0.0173612  
H65      H      0.862760000000     0.832840000000     0.077190000000     0.0227508  
H66      H      0.748550000000     0.660990000000     0.949150000000     0.0489882  
H67      H      0.780410000000     0.744370000000     0.077400000000     0.0548682  
H68      H      0.651670000000     0.728140000000     0.066340000000     0.0484074  
H69      H      0.729480000000     0.785860000000     0.942040000000     0.0644341  
H70      H      0.668800000000     0.566770000000     0.948730000000     0.0179033  
H71      H      0.772580000000     0.882850000000     0.910750000000     0.0871793  
H72      H      0.825020000000     0.938500000000     0.940470000000     0.104567   
H73      H      0.574020000000     0.277950000000     0.009480000000     0.0239458  
H74      H      0.913660000000     0.159840000000     0.943470000000     0.0232819  
H75      H      0.809920000000     0.345630000000     0.989240000000     0.0496747  
H76      H      0.837570000000     0.242710000000     0.940850000000     0.0529325  
H77      H      0.654110000000     0.198840000000     0.011550000000     0.0491271  
H78      H      0.751020000000     0.174880000000     0.063950000000     0.0621926  
H79      H      0.728560000000     0.424410000000     0.988730000000     0.0258971  
H80      H      0.784500000000     0.081740000000     0.095380000000     0.0872719  
H81      H      0.839700000000     0.033720000000     0.069470000000     0.105528   
H82      H      0.456500000000     0.315520000000     0.047640000000     0.0153486  
H83      H      0.158890000000     0.120910000000     0.933400000000     0.023456   
H84      H      0.252350000000     0.314610000000     0.958930000000     0.0483771  
H85      H      0.242930000000     0.207450000000     0.931930000000     0.0540944  
H86      H      0.381550000000     0.219210000000     0.046700000000     0.0473194  
H87      H      0.277780000000     0.181330000000     0.072210000000     0.0645214  
H88      H      0.333080000000     0.407310000000     0.959130000000     0.0136888  
H89      H      0.233590000000     0.086940000000     0.105650000000     0.087236   
H90      H      0.184040000000     0.028490000000     0.076420000000     0.104795   
N1       N      0.499830000000     0.489980000000     0.871820000000    -0.222464   
N2       N      0.490100000000     0.481110000000     0.633130000000    -0.206956   
N3       N      0.580340000000     0.580240000000     0.864120000000    -0.218579   
N4       N      0.511030000000     0.473280000000     0.134080000000    -0.224318   
N5       N      0.497580000000     0.488150000000     0.371220000000    -0.205637   
N6       N      0.629300000000     0.489250000000     0.139720000000    -0.219622   
N7       N      0.128940000000     0.857820000000     0.491650000000    -0.205431   
N8       N      0.362220000000     0.619740000000     0.498040000000    -0.19986    
N9       N      0.078610000000     0.801830000000     0.428620000000    -0.218437   
N10      N      0.610600000000     0.595470000000     0.507540000000    -0.27786    
N11      N      0.863890000000     0.834810000000     0.500540000000    -0.197739   
N12      N      0.560700000000     0.658580000000     0.562210000000    -0.227172   
N13      N      0.616840000000     0.353260000000     0.495390000000    -0.217356   
N14      N      0.849120000000     0.113970000000     0.496760000000    -0.187359   
N15      N      0.547340000000     0.283170000000     0.448670000000    -0.21903    
N16      N      0.115060000000     0.143880000000     0.488270000000    -0.217356   
N17      N      0.371200000000     0.380500000000     0.497420000000    -0.265673   
N18      N      0.075590000000     0.184470000000     0.557520000000    -0.218983   
N19      N      0.371900000000     0.606830000000     0.001220000000    -0.217411   
N20      N      0.132730000000     0.839630000000     0.006600000000    -0.187348   
N21      N      0.298950000000     0.546020000000     0.951160000000    -0.219228   
N22      N      0.845560000000     0.859860000000     0.009110000000    -0.216928   
N23      N      0.617700000000     0.596300000000     0.005700000000    -0.264226   
N24      N      0.802930000000     0.892330000000     0.938500000000    -0.218786   
N25      N      0.877870000000     0.119190000000     0.005320000000    -0.205902   
N26      N      0.644960000000     0.357460000000     0.999160000000    -0.199416   
N27      N      0.819700000000     0.077420000000     0.070410000000    -0.218364   
N28      N      0.169250000000     0.100930000000     0.003430000000    -0.216463   
N29      N      0.398170000000     0.365390000000     0.003270000000    -0.263845   
N30      N      0.205690000000     0.074900000000     0.077150000000    -0.218457   
O1       O      0.065810000000     0.906050000000     0.969440000000    -0.386666   
O2       O      0.946520000000     0.053910000000     0.968540000000    -0.390045   
O3       O      0.087100000000     0.040670000000     0.967510000000    -0.40875    
O4       O      0.925810000000     0.918900000000     0.970500000000    -0.409781   
O5       O      0.928990000000     0.918710000000     0.044700000000    -0.412678   
O6       O      0.086200000000     0.045220000000     0.041640000000    -0.409515   
O7       O      0.944940000000     0.052910000000     0.042720000000    -0.390129   
O8       O      0.070420000000     0.910420000000     0.043580000000    -0.390092   
O9       O      0.061100000000     0.924950000000     0.455560000000    -0.390727   
O10      O      0.914670000000     0.047460000000     0.458520000000    -0.387284   
O11      O      0.054750000000     0.062150000000     0.453590000000    -0.407885   
O12      O      0.921910000000     0.911920000000     0.460190000000    -0.411847   
O13      O      0.927710000000     0.914540000000     0.534440000000    -0.409658   
O14      O      0.060130000000     0.064200000000     0.527820000000    -0.412245   
O15      O      0.920990000000     0.050960000000     0.532640000000    -0.39031    
O16      O      0.067600000000     0.928290000000     0.529600000000    -0.388261   
O17      O      0.546210000000     0.519000000000     0.939890000000    -0.479154   
O18      O      0.552650000000     0.510250000000     0.067040000000    -0.481369   
O19      O      0.616900000000     0.461280000000     0.999580000000    -0.454877   
O20      O      0.479680000000     0.580050000000     0.006380000000    -0.461389   
O21      O      0.400790000000     0.503270000000     0.001360000000    -0.45714    
O22      O      0.537380000000     0.384840000000     0.000740000000    -0.464241   
O23      O      0.463570000000     0.444940000000     0.066750000000    -0.476371   
O24      O      0.462220000000     0.447830000000     0.938860000000    -0.475252   
O25      O      0.535760000000     0.526500000000     0.438940000000    -0.470019   
O26      O      0.528300000000     0.520920000000     0.566480000000    -0.48871    
O27      O      0.593030000000     0.458130000000     0.502190000000    -0.456101   
O28      O      0.468300000000     0.588610000000     0.498660000000    -0.464799   
O29      O      0.386280000000     0.514760000000     0.501260000000    -0.463013   
O30      O      0.510740000000     0.384660000000     0.498040000000    -0.462503   
O31      O      0.449990000000     0.443450000000     0.565660000000    -0.475544   
O32      O      0.454160000000     0.451920000000     0.437730000000    -0.479967   


