data_structure

_audit_creation_method RASPA-1.0
_audit_creation_date 2023-6-4
_audit_author_name 'Poobodin Mano'

_cell_length_a    20.6492
_cell_length_b    20.988
_cell_length_c    29.9655
_cell_angle_alpha 89.9988
_cell_angle_beta  89.9988
_cell_angle_gamma 94.7481
_cell_volume      12942

_symmetry_cell_setting          triclinic
_symmetry_space_group_name_Hall 'P 1'
_symmetry_space_group_name_H-M  'P 1'
_symmetry_Int_Tables_number     1

_symmetry_equiv_pos_as_xyz 'x,y,z'

loop_
_atom_site_label
_atom_site_type_symbol
_atom_site_fract_x
_atom_site_fract_y
_atom_site_fract_z
_atom_site_charge
C1       C      0.086340000000     0.897170000000     0.001120000000     0.400426   
C2       C      0.907300000000     0.072590000000     0.004900000000     0.401009   
C3       C      0.088430000000     0.079310000000     0.999730000000     0.418663   
C4       C      0.903650000000     0.891860000000     0.006160000000     0.418631   
C5       C      0.085790000000     0.901330000000     0.502120000000     0.391542   
C6       C      0.903390000000     0.073390000000     0.503830000000     0.401239   
C7       C      0.085440000000     0.082110000000     0.502120000000     0.418946   
C8       C      0.903250000000     0.891930000000     0.504140000000     0.428824   
C9       C      0.500130000000     0.489690000000     0.915030000000     0.485243   
C10      C      0.491920000000     0.481580000000     0.085520000000     0.486338   
C11      C      0.580490000000     0.398100000000     0.002390000000     0.456471   
C12      C      0.412500000000     0.570460000000     0.000580000000     0.453644   
C13      C      0.493460000000     0.485640000000     0.415020000000     0.473847   
C14      C      0.495800000000     0.489780000000     0.585530000000     0.474338   
C15      C      0.579490000000     0.401930000000     0.500140000000     0.453106   
C16      C      0.409070000000     0.572270000000     0.499440000000     0.461984   
C17      C      0.531430000000     0.542650000000     0.845910000000     0.247733   
C18      C      0.470800000000     0.441520000000     0.845630000000     0.0847724  
C19      C      0.529780000000     0.543980000000     0.799120000000    -0.158177   
C20      C      0.548930000000     0.523460000000     0.700410000000    -0.0808175  
C21      C      0.470130000000     0.440790000000     0.799150000000    -0.103807   
C22      C      0.497830000000     0.492690000000     0.725150000000     0.0250241  
C23      C      0.499230000000     0.492600000000     0.775030000000     0.0674429  
C24      C      0.546980000000     0.522700000000     0.653840000000     0.0736959  
C25      C      0.446060000000     0.460180000000     0.655020000000     0.0757407  
C26      C      0.445670000000     0.461310000000     0.701630000000    -0.080207   
C27      C      0.458770000000     0.430450000000     0.154910000000     0.242813   
C28      C      0.519890000000     0.531330000000     0.154610000000     0.0847564  
C29      C      0.459720000000     0.430040000000     0.201710000000    -0.158538   
C30      C      0.440140000000     0.451890000000     0.300190000000    -0.0822152  
C31      C      0.519880000000     0.532990000000     0.201080000000    -0.107079   
C32      C      0.491360000000     0.482360000000     0.275400000000     0.0235769  
C33      C      0.490290000000     0.481710000000     0.225510000000     0.0660497  
C34      C      0.442060000000     0.452870000000     0.346760000000     0.072166   
C35      C      0.543020000000     0.515310000000     0.345490000000     0.072061   
C36      C      0.543480000000     0.513900000000     0.298880000000    -0.0820312  
C37      C      0.299200000000     0.603010000000     0.488900000000     0.23824    
C38      C      0.383460000000     0.680880000000     0.509500000000     0.0782565  
C39      C      0.254160000000     0.650220000000     0.488890000000    -0.153844   
C40      C      0.192160000000     0.779620000000     0.461730000000    -0.0775268  
C41      C      0.339050000000     0.728500000000     0.510870000000    -0.10219    
C42      C      0.225200000000     0.763980000000     0.500640000000     0.0205446  
C43      C      0.273410000000     0.713740000000     0.500210000000     0.0629358  
C44      C      0.146860000000     0.826390000000     0.462630000000     0.0638706  
C45      C      0.163600000000     0.841210000000     0.540080000000     0.0641269  
C46      C      0.210670000000     0.796070000000     0.540030000000    -0.0767528  
C47      C      0.833930000000     0.814130000000     0.543770000000     0.247391   
C48      C      0.831960000000     0.819420000000     0.464300000000     0.0862111  
C49      C      0.785080000000     0.764630000000     0.542960000000    -0.165095   
C50      C      0.710560000000     0.640290000000     0.472130000000    -0.0793086  
C51      C      0.783630000000     0.769910000000     0.462590000000    -0.111236   
C52      C      0.707160000000     0.692270000000     0.501040000000     0.0203805  
C53      C      0.759700000000     0.742730000000     0.502190000000     0.0723793  
C54      C      0.659900000000     0.592800000000     0.471830000000     0.072109   
C55      C      0.603710000000     0.647740000000     0.527350000000     0.0714999  
C56      C      0.653180000000     0.696210000000     0.528780000000    -0.0782694  
C57      C      0.844160000000     0.152640000000     0.542160000000     0.235914   
C58      C      0.824890000000     0.131520000000     0.465480000000     0.0754632  
C59      C      0.798530000000     0.199350000000     0.541450000000    -0.151001   
C60      C      0.734560000000     0.326110000000     0.510880000000    -0.0796355  
C61      C      0.777930000000     0.176660000000     0.464240000000    -0.0998814  
C62      C      0.715840000000     0.261710000000     0.501450000000     0.0229973  
C63      C      0.764460000000     0.211850000000     0.502390000000     0.0612967  
C64      C      0.688740000000     0.372360000000     0.509520000000     0.0682232  
C65      C      0.605110000000     0.292740000000     0.491640000000     0.0678737  
C66      C      0.650120000000     0.245610000000     0.491360000000    -0.0795573  
C67      C      0.381970000000     0.327180000000     0.531430000000     0.249698   
C68      C      0.329960000000     0.380620000000     0.473060000000     0.0884156  
C69      C      0.331530000000     0.279390000000     0.532190000000    -0.163062   
C70      C      0.204980000000     0.205210000000     0.461690000000    -0.0834711  
C71      C      0.278850000000     0.333750000000     0.472610000000    -0.103845   
C72      C      0.227290000000     0.231970000000     0.502040000000     0.024813   
C73      C      0.279780000000     0.282590000000     0.502370000000     0.0687994  
C74      C      0.156900000000     0.155200000000     0.462230000000     0.07252    
C75      C      0.152970000000     0.158810000000     0.541560000000     0.0728558  
C76      C      0.200600000000     0.209030000000     0.542230000000    -0.0830971  
C77      C      0.143190000000     0.816630000000     0.962230000000     0.235119   
C78      C      0.166060000000     0.839190000000     0.038280000000     0.0748249  
C79      C      0.188710000000     0.769800000000     0.962320000000    -0.150806   
C80      C      0.256400000000     0.644570000000     0.989510000000    -0.0791415  
C81      C      0.212970000000     0.793980000000     0.038850000000    -0.0999769  
C82      C      0.273890000000     0.708620000000     0.000880000000     0.0228949  
C83      C      0.224670000000     0.758010000000     0.000700000000     0.0609425  
C84      C      0.302900000000     0.598880000000     0.990310000000     0.067986   
C85      C      0.384820000000     0.678500000000     0.011370000000     0.0693761  
C86      C      0.339120000000     0.724910000000     0.012270000000    -0.0791277  
C87      C      0.665060000000     0.591110000000     0.977950000000     0.250813   
C88      C      0.607870000000     0.642270000000     0.034910000000     0.0853909  
C89      C      0.714690000000     0.639680000000     0.979270000000    -0.164107   
C90      C      0.786550000000     0.767800000000     0.048810000000    -0.0832635  
C91      C      0.656640000000     0.691460000000     0.037480000000    -0.105278   
C92      C      0.760000000000     0.743580000000     0.008860000000     0.0243453  
C93      C      0.710170000000     0.690410000000     0.009060000000     0.0690324  
C94      C      0.834530000000     0.818030000000     0.047440000000     0.0723202  
C95      C      0.828900000000     0.820260000000     0.968140000000     0.0730821  
C96      C      0.780960000000     0.770390000000     0.968300000000    -0.08309    
C97      C      0.850480000000     0.153270000000     0.043590000000     0.235213   
C98      C      0.827670000000     0.130290000000     0.967560000000     0.0756647  
C99      C      0.804930000000     0.200060000000     0.043340000000    -0.151306   
C100     C      0.736870000000     0.324960000000     0.015070000000    -0.0803415  
C101     C      0.780780000000     0.175430000000     0.966830000000    -0.0997567  
C102     C      0.719620000000     0.260610000000     0.004480000000     0.0240003  
C103     C      0.769050000000     0.211550000000     0.004880000000     0.0610487  
C104     C      0.690120000000     0.370350000000     0.013700000000     0.0690221  
C105     C      0.608520000000     0.289770000000     0.993830000000     0.072271   
C106     C      0.654420000000     0.243620000000     0.993520000000    -0.0804218  
C107     C      0.379930000000     0.326370000000     0.965100000000     0.251565   
C108     C      0.330160000000     0.381510000000     0.023610000000     0.0855685  
C109     C      0.327270000000     0.281070000000     0.963530000000    -0.164247   
C110     C      0.204560000000     0.208140000000     0.036020000000    -0.0833337  
C111     C      0.276920000000     0.336910000000     0.023370000000    -0.105568   
C112     C      0.223620000000     0.234940000000     0.995020000000     0.024279   
C113     C      0.275830000000     0.285870000000     0.993330000000     0.0694154  
C114     C      0.159170000000     0.155900000000     0.036970000000     0.0723682  
C115     C      0.151080000000     0.157280000000     0.957770000000     0.0729806  
C116     C      0.196170000000     0.209750000000     0.955620000000    -0.082888   
Cu1      Cu     0.994070000000     0.984040000000     0.961960000000     0.855107   
Cu2      Cu     0.999490000000     0.985780000000     0.044120000000     0.845981   
Cu3      Cu     0.993320000000     0.986790000000     0.461890000000     0.843616   
Cu4      Cu     0.995500000000     0.987420000000     0.544110000000     0.858092   
Cu5      Cu     0.544980000000     0.531970000000     0.002710000000     1.17218    
Cu6      Cu     0.448470000000     0.436800000000     0.997820000000     1.16684    
Cu7      Cu     0.543600000000     0.533390000000     0.500110000000     1.15004    
Cu8      Cu     0.445230000000     0.440800000000     0.500500000000     1.16761    
H1       H      0.587690000000     0.547070000000     0.636200000000     0.0280698  
H2       H      0.447270000000     0.400090000000     0.862410000000     0.0389003  
H3       H      0.404140000000     0.438090000000     0.718880000000     0.0526363  
H4       H      0.447340000000     0.399050000000     0.782450000000     0.0590422  
H5       H      0.591030000000     0.547250000000     0.716690000000     0.0515204  
H6       H      0.551760000000     0.585820000000     0.782080000000     0.0811672  
H7       H      0.404870000000     0.435150000000     0.638310000000     0.0353763  
H8       H      0.607410000000     0.585520000000     0.870560000000     0.166052   
H9       H      0.401280000000     0.428690000000     0.364440000000     0.0247865  
H10      H      0.543800000000     0.572380000000     0.137550000000     0.0223793  
H11      H      0.585090000000     0.536930000000     0.281610000000     0.0495412  
H12      H      0.542600000000     0.574970000000     0.217540000000     0.0554839  
H13      H      0.398020000000     0.428060000000     0.283960000000     0.049193   
H14      H      0.437260000000     0.388630000000     0.218990000000     0.07938    
H15      H      0.584270000000     0.540300000000     0.362170000000     0.0249237  
H16      H      0.382840000000     0.388060000000     0.129800000000     0.150501   
H17      H      0.123050000000     0.836790000000     0.431550000000     0.0276966  
H18      H      0.433650000000     0.695220000000     0.517860000000     0.0238536  
H19      H      0.234730000000     0.785470000000     0.570950000000     0.0521997  
H20      H      0.356330000000     0.776990000000     0.519700000000     0.057363   
H21      H      0.201720000000     0.756160000000     0.430500000000     0.0500575  
H22      H      0.203870000000     0.636770000000     0.480390000000     0.0798151  
H23      H      0.153710000000     0.864010000000     0.571520000000     0.0293374  
H24      H      0.281820000000     0.539380000000     0.444760000000     0.148811   
H25      H      0.661980000000     0.551800000000     0.450170000000     0.0176537  
H26      H      0.848660000000     0.839740000000     0.432650000000     0.0238764  
H27      H      0.649230000000     0.736380000000     0.551060000000     0.052587   
H28      H      0.764220000000     0.753910000000     0.430520000000     0.0580987  
H29      H      0.752170000000     0.636080000000     0.450620000000     0.0490915  
H30      H      0.767500000000     0.743230000000     0.574070000000     0.0831195  
H31      H      0.561920000000     0.649740000000     0.548910000000     0.0190424  
H32      H      0.894310000000     0.807300000000     0.590760000000     0.15349    
H33      H      0.706000000000     0.421470000000     0.516740000000     0.028173   
H34      H      0.833500000000     0.106200000000     0.434790000000     0.0260492  
H35      H      0.633270000000     0.196510000000     0.483950000000     0.0520853  
H36      H      0.752980000000     0.184700000000     0.433200000000     0.0567576  
H37      H      0.784750000000     0.340930000000     0.518760000000     0.0515855  
H38      H      0.789600000000     0.225500000000     0.571710000000     0.0807495  
H39      H      0.554840000000     0.277600000000     0.484050000000     0.0234611  
H40      H      0.915010000000     0.173590000000     0.581000000000     0.151974   
H41      H      0.140930000000     0.134910000000     0.430410000000     0.0268951  
H42      H      0.329610000000     0.420510000000     0.450260000000     0.0205446  
H43      H      0.216460000000     0.229680000000     0.573940000000     0.0541574  
H44      H      0.238920000000     0.337650000000     0.449580000000     0.0578226  
H45      H      0.225450000000     0.221860000000     0.430070000000     0.0507158  
H46      H      0.333470000000     0.239760000000     0.555230000000     0.0806674  
H47      H      0.133450000000     0.141930000000     0.573430000000     0.0285453  
H48      H      0.463340000000     0.297380000000     0.545960000000     0.156129   
H49      H      0.286620000000     0.550020000000     0.981630000000     0.0275781  
H50      H      0.158980000000     0.865150000000     0.068940000000     0.0255314  
H51      H      0.355100000000     0.773710000000     0.021170000000     0.0522132  
H52      H      0.239370000000     0.786580000000     0.069400000000     0.05567    
H53      H      0.206640000000     0.629540000000     0.980600000000     0.051035   
H54      H      0.196240000000     0.743140000000     0.932040000000     0.0805522  
H55      H      0.434640000000     0.693900000000     0.020030000000     0.0283179  
H56      H      0.070470000000     0.795180000000     0.925120000000     0.151775   
H57      H      0.854770000000     0.835630000000     0.078920000000     0.0276023  
H58      H      0.565580000000     0.643260000000     0.056090000000     0.0163237  
H59      H      0.760190000000     0.753170000000     0.936890000000     0.0549121  
H60      H      0.651730000000     0.730670000000     0.060420000000     0.0567621  
H61      H      0.771080000000     0.747520000000     0.080700000000     0.0505768  
H62      H      0.756120000000     0.637780000000     0.957240000000     0.0798091  
H63      H      0.844120000000     0.839800000000     0.935940000000     0.0287263  
H64      H      0.694450000000     0.510690000000     0.963410000000     0.155799   
H65      H      0.706180000000     0.419470000000     0.021760000000     0.0225947  
H66      H      0.834770000000     0.104160000000     0.936980000000     0.0270064  
H67      H      0.638630000000     0.194510000000     0.985350000000     0.0530017  
H68      H      0.754370000000     0.182620000000     0.936260000000     0.0575805  
H69      H      0.786620000000     0.340450000000     0.023720000000     0.0507551  
H70      H      0.797320000000     0.226880000000     0.073520000000     0.0797496  
H71      H      0.558770000000     0.273720000000     0.985700000000     0.0237016  
H72      H      0.923190000000     0.174940000000     0.080660000000     0.151005   
H73      H      0.145880000000     0.135780000000     0.069350000000     0.0274548  
H74      H      0.331620000000     0.421170000000     0.046730000000     0.0113993  
H75      H      0.209930000000     0.230060000000     0.923400000000     0.053392   
H76      H      0.237360000000     0.341910000000     0.046530000000     0.0554686  
H77      H      0.225950000000     0.226160000000     0.067040000000     0.0517819  
H78      H      0.327830000000     0.241410000000     0.940400000000     0.0811728  
H79      H      0.130870000000     0.138570000000     0.926560000000     0.0290483  
H80      H      0.458930000000     0.291700000000     0.950960000000     0.156934   
N1       N      0.501260000000     0.491700000000     0.869120000000    -0.230135   
N2       N      0.496220000000     0.490840000000     0.631290000000    -0.203355   
N3       N      0.489720000000     0.480700000000     0.131420000000    -0.233683   
N4       N      0.492880000000     0.484700000000     0.369250000000    -0.205562   
N5       N      0.364060000000     0.618160000000     0.499190000000    -0.224809   
N6       N      0.131900000000     0.856710000000     0.501620000000    -0.185612   
N7       N      0.856600000000     0.842020000000     0.504430000000    -0.225786   
N8       N      0.608200000000     0.597610000000     0.499230000000    -0.264538   
N9       N      0.857720000000     0.118710000000     0.504110000000    -0.212499   
N10      N      0.624140000000     0.355950000000     0.500380000000    -0.197734   
N11      N      0.380030000000     0.376470000000     0.502040000000    -0.292605   
N12      N      0.131720000000     0.131940000000     0.501900000000    -0.197286   
N13      N      0.131550000000     0.851410000000     0.000270000000    -0.212729   
N14      N      0.367000000000     0.615630000000     0.000760000000    -0.197193   
N15      N      0.612710000000     0.593810000000     0.005320000000    -0.292401   
N16      N      0.855690000000     0.843550000000     0.007360000000    -0.196925   
N17      N      0.862120000000     0.118310000000     0.005640000000    -0.213014   
N18      N      0.626090000000     0.353040000000     0.003340000000    -0.198166   
N19      N      0.380400000000     0.375190000000     0.995120000000    -0.291629   
N20      N      0.133150000000     0.130470000000     0.998120000000    -0.196784   
O1       O      0.062230000000     0.917470000000     0.964580000000    -0.371583   
O2       O      0.925690000000     0.049900000000     0.967390000000    -0.386963   
O3       O      0.064610000000     0.055440000000     0.963360000000    -0.407124   
O4       O      0.923860000000     0.913680000000     0.968340000000    -0.410629   
O5       O      0.928210000000     0.914640000000     0.042660000000    -0.405901   
O6       O      0.069570000000     0.056690000000     0.037670000000    -0.408219   
O7       O      0.931410000000     0.052400000000     0.041460000000    -0.371335   
O8       O      0.067900000000     0.919770000000     0.038650000000    -0.386927   
O9       O      0.062460000000     0.921320000000     0.465230000000    -0.385328   
O10      O      0.923680000000     0.051680000000     0.466520000000    -0.386191   
O11      O      0.063300000000     0.058830000000     0.465090000000    -0.407848   
O12      O      0.923920000000     0.915070000000     0.466740000000    -0.412114   
O13      O      0.925930000000     0.915210000000     0.540940000000    -0.395048   
O14      O      0.064450000000     0.059290000000     0.539480000000    -0.410391   
O15      O      0.926250000000     0.052770000000     0.540660000000    -0.369223   
O16      O      0.065480000000     0.922850000000     0.539480000000    -0.384609   
O17      O      0.535670000000     0.529390000000     0.938120000000    -0.452328   
O18      O      0.529370000000     0.523330000000     0.065680000000    -0.482711   
O19      O      0.597950000000     0.457610000000     0.006050000000    -0.457501   
O20      O      0.472910000000     0.587550000000     0.004540000000    -0.451644   
O21      O      0.394840000000     0.510980000000     0.996450000000    -0.456847   
O22      O      0.520260000000     0.380940000000     0.997690000000    -0.450036   
O23      O      0.456940000000     0.441200000000     0.062510000000    -0.466574   
O24      O      0.463120000000     0.447550000000     0.934810000000    -0.46615    
O25      O      0.535920000000     0.521250000000     0.436010000000    -0.476098   
O26      O      0.538440000000     0.523820000000     0.563820000000    -0.474699   
O27      O      0.598390000000     0.461170000000     0.502730000000    -0.452154   
O28      O      0.469960000000     0.588540000000     0.501680000000    -0.458306   
O29      O      0.390600000000     0.512930000000     0.497750000000    -0.443529   
O30      O      0.518640000000     0.385890000000     0.497510000000    -0.456312   
O31      O      0.452900000000     0.454760000000     0.564510000000    -0.460376   
O32      O      0.451450000000     0.450720000000     0.436730000000    -0.478086   
O33      O      0.561270000000     0.594740000000     0.867600000000    -0.292996   
O34      O      0.428700000000     0.378200000000     0.133520000000    -0.293718   
O35      O      0.276570000000     0.541780000000     0.477610000000    -0.292349   
O36      O      0.857850000000     0.834030000000     0.584690000000    -0.291685   
O37      O      0.875620000000     0.143160000000     0.581670000000    -0.289345   
O38      O      0.432700000000     0.324680000000     0.560660000000    -0.309332   
O39      O      0.109900000000     0.825450000000     0.923350000000    -0.290802   
O40      O      0.668470000000     0.541910000000     0.948230000000    -0.313593   
O41      O      0.883750000000     0.144670000000     0.082500000000    -0.291754   
O42      O      0.430720000000     0.321410000000     0.936310000000    -0.308382   


