data_structure

_audit_creation_method RASPA-1.0
_audit_creation_date 2023-6-4
_audit_author_name 'Poobodin Mano'

_cell_length_a    18.1324
_cell_length_b    22.9323
_cell_length_c    29.8529
_cell_angle_alpha 89.9989
_cell_angle_beta  89.9989
_cell_angle_gamma 94.7502
_cell_volume      12370.7

_symmetry_cell_setting          triclinic
_symmetry_space_group_name_Hall 'P 1'
_symmetry_space_group_name_H-M  'P 1'
_symmetry_Int_Tables_number     1

_symmetry_equiv_pos_as_xyz 'x,y,z'

loop_
_atom_site_label
_atom_site_type_symbol
_atom_site_fract_x
_atom_site_fract_y
_atom_site_fract_z
_atom_site_charge
C1       C      0.156650000000     0.849810000000     0.007440000000     0.396699   
C2       C      0.970870000000     0.021710000000     0.006750000000     0.39707    
C3       C      0.173760000000     0.018020000000     0.010220000000     0.416346   
C4       C      0.953050000000     0.853840000000     0.003290000000     0.416073   
C5       C      0.148030000000     0.871660000000     0.501560000000     0.396694   
C6       C      0.954940000000     0.038360000000     0.502410000000     0.396643   
C7       C      0.158230000000     0.040190000000     0.496680000000     0.414572   
C8       C      0.944890000000     0.869770000000     0.506950000000     0.41447    
C9       C      0.559170000000     0.431890000000     0.918140000000     0.471931   
C10      C      0.568910000000     0.441010000000     0.088690000000     0.470889   
C11      C      0.657660000000     0.356350000000     0.005810000000     0.461053   
C12      C      0.472520000000     0.516170000000     0.004590000000     0.457292   
C13      C      0.559120000000     0.461720000000     0.418330000000     0.470934   
C14      C      0.542830000000     0.446450000000     0.588420000000     0.475857   
C15      C      0.640290000000     0.372760000000     0.502670000000     0.458913   
C16      C      0.462320000000     0.537490000000     0.503320000000     0.458157   
C17      C      0.614490000000     0.449580000000     0.800780000000    -0.0878131  
C18      C      0.548300000000     0.432660000000     0.778200000000     0.0344628  
C19      C      0.486350000000     0.412970000000     0.803900000000    -0.0870798  
C20      C      0.491270000000     0.411620000000     0.850680000000     0.0722181  
C21      C      0.616970000000     0.448930000000     0.847430000000     0.0730925  
C22      C      0.544320000000     0.436760000000     0.728340000000     0.0351712  
C23      C      0.587520000000     0.480710000000     0.705430000000    -0.0884519  
C24      C      0.586210000000     0.483060000000     0.658830000000     0.0746857  
C25      C      0.497000000000     0.401570000000     0.656220000000     0.0736758  
C26      C      0.498210000000     0.397110000000     0.703000000000    -0.0874865  
C27      C      0.524780000000     0.409740000000     0.206280000000    -0.0881137  
C28      C      0.570100000000     0.453090000000     0.228520000000     0.0350268  
C29      C      0.617180000000     0.491170000000     0.202510000000    -0.087367   
C30      C      0.617380000000     0.485800000000     0.155810000000     0.073562   
C31      C      0.525110000000     0.406520000000     0.159670000000     0.0746042  
C32      C      0.567260000000     0.458380000000     0.278360000000     0.034761   
C33      C      0.501140000000     0.443270000000     0.301520000000    -0.0879776  
C34      C      0.499580000000     0.444990000000     0.348150000000     0.0734497  
C35      C      0.626110000000     0.480190000000     0.350270000000     0.0732335  
C36      C      0.630120000000     0.477620000000     0.303470000000    -0.0872597  
C37      C      0.267230000000     0.759210000000     0.461840000000    -0.0839916  
C38      C      0.282070000000     0.730090000000     0.501690000000     0.0318891  
C39      C      0.252440000000     0.750300000000     0.541540000000    -0.0842032  
C40      C      0.209490000000     0.798590000000     0.541010000000     0.0670324  
C41      C      0.222360000000     0.806420000000     0.462300000000     0.0669453  
C42      C      0.328850000000     0.679360000000     0.501820000000     0.0337402  
C43      C      0.404390000000     0.687230000000     0.491720000000    -0.0864839  
C44      C      0.448160000000     0.639490000000     0.492910000000     0.0700963  
C45      C      0.343730000000     0.575570000000     0.512090000000     0.0705479  
C46      C      0.298740000000     0.622740000000     0.512370000000    -0.0863605  
C47      C      0.842110000000     0.740820000000     0.553350000000    -0.0890132  
C48      C      0.820110000000     0.711020000000     0.514140000000     0.0368159  
C49      C      0.835030000000     0.737540000000     0.472670000000    -0.0888608  
C50      C      0.873800000000     0.792220000000     0.470960000000     0.0732071  
C51      C      0.880670000000     0.795550000000     0.550430000000     0.0729393  
C52      C      0.777570000000     0.653950000000     0.516370000000     0.0325958  
C53      C      0.792030000000     0.608950000000     0.486530000000    -0.0854153  
C54      C      0.744300000000     0.558240000000     0.485510000000     0.0734438  
C55      C      0.672030000000     0.594860000000     0.543940000000     0.0695863  
C56      C      0.718130000000     0.645920000000     0.546180000000    -0.0835261  
C57      C      0.828410000000     0.146030000000     0.463510000000    -0.0837269  
C58      C      0.820440000000     0.179780000000     0.502100000000     0.0319666  
C59      C      0.857250000000     0.164130000000     0.541020000000    -0.0837999  
C60      C      0.900180000000     0.115800000000     0.540850000000     0.06711    
C61      C      0.873560000000     0.099010000000     0.464110000000     0.067047   
C62      C      0.773640000000     0.230670000000     0.501880000000     0.034047   
C63      C      0.698980000000     0.223450000000     0.489390000000    -0.0865025  
C64      C      0.655230000000     0.271230000000     0.490300000000     0.0709261  
C65      C      0.758090000000     0.334190000000     0.513590000000     0.0707951  
C66      C      0.802890000000     0.286900000000     0.514320000000    -0.0860629  
C67      C      0.271160000000     0.170710000000     0.531410000000    -0.0888086  
C68      C      0.282450000000     0.199240000000     0.490330000000     0.0368292  
C69      C      0.257430000000     0.171110000000     0.451020000000    -0.0890133  
C70      C      0.219390000000     0.116170000000     0.453550000000     0.0730138  
C71      C      0.232550000000     0.115920000000     0.532740000000     0.0730864  
C72      C      0.323720000000     0.256920000000     0.488460000000     0.0325336  
C73      C      0.311930000000     0.299730000000     0.520710000000    -0.0849578  
C74      C      0.359180000000     0.350650000000     0.521990000000     0.0731331  
C75      C      0.424960000000     0.319130000000     0.458800000000     0.0699161  
C76      C      0.379350000000     0.267780000000     0.456330000000    -0.0834413  
C77      C      0.309890000000     0.601080000000     0.020400000000    -0.0859956  
C78      C      0.337250000000     0.657040000000     0.006130000000     0.0338564  
C79      C      0.410640000000     0.664370000000     0.991150000000    -0.0863759  
C80      C      0.455010000000     0.617010000000     0.991330000000     0.0711117  
C81      C      0.355210000000     0.554120000000     0.018910000000     0.0708512  
C82      C      0.289840000000     0.707570000000     0.006610000000     0.031759   
C83      C      0.255550000000     0.724560000000     0.046060000000    -0.0837138  
C84      C      0.212750000000     0.773030000000     0.046020000000     0.0668762  
C85      C      0.234400000000     0.787070000000     0.968460000000     0.0673691  
C86      C      0.279280000000     0.739950000000     0.967640000000    -0.0837181  
C87      C      0.727630000000     0.629130000000     0.961880000000    -0.0834413  
C88      C      0.781990000000     0.640350000000     0.994740000000     0.0328741  
C89      C      0.794790000000     0.596980000000     0.026340000000    -0.0853453  
C90      C      0.750140000000     0.544730000000     0.025940000000     0.0735648  
C91      C      0.684960000000     0.576360000000     0.962520000000     0.0702732  
C92      C      0.822770000000     0.698100000000     0.996920000000     0.0374848  
C93      C      0.847070000000     0.726560000000     0.957620000000    -0.0895377  
C94      C      0.886590000000     0.780740000000     0.960270000000     0.0741397  
C95      C      0.876370000000     0.779790000000     0.039640000000     0.0735144  
C96      C      0.835900000000     0.725770000000     0.038190000000    -0.0893308  
C97      C      0.822800000000     0.272600000000     0.998730000000    -0.0860883  
C98      C      0.792460000000     0.215400000000     0.007150000000     0.0337639  
C99      C      0.716430000000     0.206770000000     0.015570000000    -0.0867503  
C100     C      0.672380000000     0.254290000000     0.014660000000     0.0704322  
C101     C      0.777410000000     0.319540000000     0.999300000000     0.0710421  
C102     C      0.839440000000     0.164810000000     0.007050000000     0.0317899  
C103     C      0.873520000000     0.147440000000     0.967700000000    -0.0838272  
C104     C      0.915750000000     0.098700000000     0.967940000000     0.0672866  
C105     C      0.893640000000     0.085090000000     0.045530000000     0.0672175  
C106     C      0.849360000000     0.132590000000     0.046150000000    -0.084113   
C107     C      0.404680000000     0.239460000000     0.976750000000    -0.0822782  
C108     C      0.349300000000     0.230280000000     0.009230000000     0.0323641  
C109     C      0.336880000000     0.275150000000     0.039670000000    -0.0859872  
C110     C      0.381270000000     0.327670000000     0.037400000000     0.0756258  
C111     C      0.446390000000     0.292410000000     0.975260000000     0.0685704  
C112     C      0.305120000000     0.173830000000     0.010450000000     0.0368779  
C113     C      0.283450000000     0.146520000000     0.970220000000    -0.089745   
C114     C      0.243560000000     0.092640000000     0.970990000000     0.0744573  
C115     C      0.245090000000     0.092060000000     0.050590000000     0.0727515  
C116     C      0.286590000000     0.145920000000     0.051040000000    -0.0884719  
Cu1      Cu     0.066080000000     0.937060000000     0.965850000000     0.858159   
Cu2      Cu     0.061200000000     0.934380000000     0.048420000000     0.839655   
Cu3      Cu     0.048230000000     0.953010000000     0.460650000000     0.845808   
Cu4      Cu     0.054800000000     0.957030000000     0.543110000000     0.846391   
Cu5      Cu     0.624380000000     0.475390000000     0.000220000000     1.16109    
Cu6      Cu     0.505170000000     0.396790000000     0.006030000000     1.16234    
Cu7      Cu     0.611420000000     0.493730000000     0.505950000000     1.16423    
Cu8      Cu     0.490200000000     0.416250000000     0.500460000000     1.16269    
H1       H      0.433710000000     0.399940000000     0.788250000000     0.0504729  
H2       H      0.441890000000     0.396720000000     0.869280000000     0.0255359  
H3       H      0.669240000000     0.463120000000     0.863250000000     0.0261088  
H4       H      0.664700000000     0.463270000000     0.782690000000     0.050896   
H5       H      0.622200000000     0.513710000000     0.723230000000     0.0506378  
H6       H      0.621170000000     0.517640000000     0.642800000000     0.0238222  
H7       H      0.461170000000     0.369780000000     0.637860000000     0.0246386  
H8       H      0.464250000000     0.362000000000     0.718930000000     0.050464   
H9       H      0.652720000000     0.525820000000     0.217850000000     0.0504366  
H10      H      0.654110000000     0.516450000000     0.136990000000     0.0241114  
H11      H      0.488520000000     0.372560000000     0.144130000000     0.0249541  
H12      H      0.489160000000     0.377900000000     0.224610000000     0.0505138  
H13      H      0.450280000000     0.430130000000     0.283920000000     0.0507906  
H14      H      0.447280000000     0.432070000000     0.364420000000     0.0256323  
H15      H      0.676160000000     0.494520000000     0.368430000000     0.0246132  
H16      H      0.682770000000     0.489320000000     0.287390000000     0.0504393  
H17      H      0.263000000000     0.729190000000     0.573090000000     0.051723   
H18      H      0.187850000000     0.812540000000     0.572760000000     0.0267269  
H19      H      0.211600000000     0.827040000000     0.430560000000     0.0265628  
H20      H      0.289330000000     0.745010000000     0.430320000000     0.0519471  
H21      H      0.429810000000     0.730330000000     0.483510000000     0.0526725  
H22      H      0.506500000000     0.648010000000     0.485210000000     0.0263342  
H23      H      0.317970000000     0.532500000000     0.520170000000     0.0260872  
H24      H      0.240500000000     0.614850000000     0.520360000000     0.0523391  
H25      H      0.816530000000     0.716370000000     0.441730000000     0.0521191  
H26      H      0.885440000000     0.811040000000     0.438140000000     0.0259132  
H27      H      0.898390000000     0.816840000000     0.581500000000     0.0257328  
H28      H      0.830730000000     0.721590000000     0.586030000000     0.0514243  
H29      H      0.838170000000     0.613760000000     0.463410000000     0.0505851  
H30      H      0.752800000000     0.524230000000     0.461400000000     0.0152801  
H31      H      0.623530000000     0.590050000000     0.565110000000     0.016579   
H32      H      0.704830000000     0.680040000000     0.569190000000     0.0498737  
H33      H      0.852210000000     0.188760000000     0.571680000000     0.0515822  
H34      H      0.927430000000     0.105490000000     0.571840000000     0.0267854  
H35      H      0.878840000000     0.074800000000     0.433250000000     0.0266477  
H36      H      0.800890000000     0.156560000000     0.432690000000     0.0513366  
H37      H      0.674060000000     0.180770000000     0.479660000000     0.0522097  
H38      H      0.597580000000     0.263160000000     0.480770000000     0.0249571  
H39      H      0.783250000000     0.376890000000     0.523200000000     0.0266512  
H40      H      0.860430000000     0.294470000000     0.524060000000     0.0520758  
H41      H      0.265830000000     0.191850000000     0.418610000000     0.0513836  
H42      H      0.199230000000     0.096290000000     0.422450000000     0.0258664  
H43      H      0.223520000000     0.095580000000     0.565290000000     0.0256601  
H44      H      0.292110000000     0.190470000000     0.562340000000     0.0519702  
H45      H      0.268560000000     0.292930000000     0.545580000000     0.0501879  
H46      H      0.353270000000     0.382630000000     0.548100000000     0.0156051  
H47      H      0.470890000000     0.326040000000     0.435770000000     0.0163972  
H48      H      0.390480000000     0.235500000000     0.431270000000     0.0495502  
H49      H      0.434110000000     0.706850000000     0.979940000000     0.0521135  
H50      H      0.511630000000     0.625210000000     0.979800000000     0.024738   
H51      H      0.331570000000     0.511580000000     0.029990000000     0.0264893  
H52      H      0.253350000000     0.593420000000     0.032080000000     0.0518884  
H53      H      0.262630000000     0.701010000000     0.077010000000     0.0513854  
H54      H      0.187620000000     0.784560000000     0.077400000000     0.0265418  
H55      H      0.227310000000     0.810240000000     0.937300000000     0.0265921  
H56      H      0.304760000000     0.728360000000     0.936410000000     0.0513313  
H57      H      0.837400000000     0.604000000000     0.051660000000     0.0503506  
H58      H      0.756980000000     0.511940000000     0.051320000000     0.0153713  
H59      H      0.640480000000     0.568660000000     0.938580000000     0.0169387  
H60      H      0.715700000000     0.661770000000     0.937280000000     0.0494515  
H61      H      0.837510000000     0.706470000000     0.925060000000     0.0516358  
H62      H      0.906240000000     0.800740000000     0.929100000000     0.0258872  
H63      H      0.887380000000     0.799400000000     0.072270000000     0.0254529  
H64      H      0.815550000000     0.705720000000     0.069150000000     0.0518496  
H65      H      0.690840000000     0.163250000000     0.022180000000     0.0526103  
H66      H      0.613640000000     0.245140000000     0.020900000000     0.0258373  
H67      H      0.803240000000     0.363060000000     0.992820000000     0.0268834  
H68      H      0.881460000000     0.281090000000     0.992170000000     0.0525455  
H69      H      0.866770000000     0.170980000000     0.936700000000     0.051838   
H70      H      0.940840000000     0.086880000000     0.936620000000     0.0266705  
H71      H      0.900340000000     0.061950000000     0.076740000000     0.0267277  
H72      H      0.823710000000     0.144500000000     0.077240000000     0.0519002  
H73      H      0.293970000000     0.269550000000     0.064900000000     0.0502979  
H74      H      0.374330000000     0.362030000000     0.061490000000     0.0148999  
H75      H      0.490570000000     0.298780000000     0.950980000000     0.0160316  
H76      H      0.417140000000     0.205530000000     0.953350000000     0.0496284  
H77      H      0.296100000000     0.167000000000     0.938120000000     0.0516515  
H78      H      0.227300000000     0.073510000000     0.938890000000     0.0258579  
H79      H      0.230060000000     0.071910000000     0.082530000000     0.0254533  
H80      H      0.304030000000     0.165380000000     0.082770000000     0.0514159  
N1       N      0.555740000000     0.430520000000     0.872250000000    -0.206382   
N2       N      0.541650000000     0.443660000000     0.634320000000    -0.206636   
N3       N      0.570780000000     0.444390000000     0.134550000000    -0.205475   
N4       N      0.561680000000     0.462780000000     0.372420000000    -0.205823   
N5       N      0.193610000000     0.826170000000     0.501620000000    -0.188685   
N6       N      0.418160000000     0.583840000000     0.502770000000    -0.200777   
N7       N      0.898180000000     0.820190000000     0.509500000000    -0.196425   
N8       N      0.684770000000     0.553090000000     0.513240000000    -0.263644   
N9       N      0.909250000000     0.083780000000     0.502530000000    -0.188589   
N10      N      0.684460000000     0.326410000000     0.502120000000    -0.200702   
N11      N      0.205030000000     0.089740000000     0.494230000000    -0.196472   
N12      N      0.415560000000     0.358240000000     0.492090000000    -0.263563   
N13      N      0.427600000000     0.562040000000     0.004870000000    -0.200556   
N14      N      0.201440000000     0.803820000000     0.007390000000    -0.188806   
N15      N      0.695470000000     0.536400000000     0.994990000000    -0.26439    
N16      N      0.903650000000     0.805910000000     0.001060000000    -0.197303   
N17      N      0.702480000000     0.310450000000     0.006740000000    -0.201422   
N18      N      0.926530000000     0.067960000000     0.006680000000    -0.188918   
N19      N      0.434970000000     0.334700000000     0.005680000000    -0.264688   
N20      N      0.222470000000     0.066480000000     0.010810000000    -0.197243   
O1       O      0.137430000000     0.872390000000     0.970150000000    -0.390895   
O2       O      0.995160000000     0.002150000000     0.969580000000    -0.390626   
O3       O      0.150440000000     0.997710000000     0.972410000000    -0.412411   
O4       O      0.980840000000     0.875840000000     0.967000000000    -0.409776   
O5       O      0.976230000000     0.872910000000     0.041580000000    -0.404889   
O6       O      0.146760000000     0.996670000000     0.047020000000    -0.403242   
O7       O      0.989570000000     0.998890000000     0.044070000000    -0.389162   
O8       O      0.132590000000     0.869460000000     0.044660000000    -0.388814   
O9       O      0.124520000000     0.891620000000     0.464290000000    -0.388798   
O10      O      0.972560000000     0.014700000000     0.465180000000    -0.388644   
O11      O      0.129710000000     0.017830000000     0.460670000000    -0.40644    
O12      O      0.967300000000     0.888680000000     0.468490000000    -0.406322   
O13      O      0.970970000000     0.893850000000     0.543020000000    -0.405038   
O14      O      0.138140000000     0.019660000000     0.535140000000    -0.405468   
O15      O      0.981930000000     0.020680000000     0.539440000000    -0.389881   
O16      O      0.127000000000     0.893080000000     0.538860000000    -0.39064    
O17      O      0.615850000000     0.456010000000     0.937580000000    -0.478153   
O18      O      0.616400000000     0.471440000000     0.065180000000    -0.473151   
O19      O      0.685100000000     0.409170000000     0.003370000000    -0.456045   
O20      O      0.541720000000     0.525930000000     0.997180000000    -0.467089   
O21      O      0.446010000000     0.463770000000     0.011730000000    -0.453774   
O22      O      0.587570000000     0.346140000000     0.007000000000    -0.470573   
O23      O      0.519000000000     0.407760000000     0.069440000000    -0.472897   
O24      O      0.505510000000     0.409960000000     0.941620000000    -0.476979   
O25      O      0.613320000000     0.483720000000     0.441460000000    -0.471075   
O26      O      0.591160000000     0.480680000000     0.568860000000    -0.482801   
O27      O      0.668320000000     0.425100000000     0.508130000000    -0.456525   
O28      O      0.532310000000     0.546810000000     0.499420000000    -0.467181   
O29      O      0.434130000000     0.484980000000     0.507440000000    -0.457478   
O30      O      0.570430000000     0.363530000000     0.497770000000    -0.466378   
O31      O      0.496480000000     0.414870000000     0.565180000000    -0.472958   
O32      O      0.502490000000     0.437560000000     0.438060000000    -0.479059   


