data_structure

_audit_creation_method RASPA-1.0
_audit_creation_date 2023-6-4
_audit_author_name 'Poobodin Mano'

_cell_length_a    20.5515
_cell_length_b    21.0141
_cell_length_c    29.9955
_cell_angle_alpha 89.9989
_cell_angle_beta  89.9989
_cell_angle_gamma 94.7534
_cell_volume      12909.6

_symmetry_cell_setting          triclinic
_symmetry_space_group_name_Hall 'P 1'
_symmetry_space_group_name_H-M  'P 1'
_symmetry_Int_Tables_number     1

_symmetry_equiv_pos_as_xyz 'x,y,z'

loop_
_atom_site_label
_atom_site_type_symbol
_atom_site_fract_x
_atom_site_fract_y
_atom_site_fract_z
_atom_site_charge
C1       C      0.087790000000     0.893820000000     0.990630000000     0.403286   
C2       C      0.911000000000     0.071580000000     0.992150000000     0.403219   
C3       C      0.097150000000     0.073090000000     0.989360000000     0.418442   
C4       C      0.902940000000     0.892950000000     0.993760000000     0.419774   
C5       C      0.088680000000     0.897080000000     0.500610000000     0.404906   
C6       C      0.910360000000     0.073370000000     0.505340000000     0.403457   
C7       C      0.095130000000     0.075830000000     0.506390000000     0.429906   
C8       C      0.906260000000     0.891560000000     0.499460000000     0.430573   
C9       C      0.504800000000     0.485910000000     0.917400000000     0.481554   
C10      C      0.494590000000     0.479490000000     0.087520000000     0.47793    
C11      C      0.587260000000     0.403370000000     0.006930000000     0.437335   
C12      C      0.410520000000     0.564300000000     0.001760000000     0.448564   
C13      C      0.496540000000     0.483120000000     0.417490000000     0.474662   
C14      C      0.501380000000     0.487310000000     0.587640000000     0.473672   
C15      C      0.584300000000     0.400570000000     0.502740000000     0.453267   
C16      C      0.413460000000     0.569370000000     0.502820000000     0.454096   
C17      C      0.550520000000     0.529340000000     0.848220000000     0.169786   
C18      C      0.466980000000     0.444220000000     0.848020000000     0.082304   
C19      C      0.548670000000     0.531230000000     0.801430000000    -0.109937   
C20      C      0.560220000000     0.511430000000     0.702250000000    -0.082798   
C21      C      0.466600000000     0.443170000000     0.801560000000    -0.0926119  
C22      C      0.505400000000     0.488360000000     0.727260000000     0.0344263  
C23      C      0.506900000000     0.487670000000     0.777270000000     0.0517744  
C24      C      0.557560000000     0.512040000000     0.655690000000     0.0774422  
C25      C      0.448930000000     0.464730000000     0.657210000000     0.0773011  
C26      C      0.449040000000     0.465610000000     0.703760000000    -0.0833075  
C27      C      0.450410000000     0.435200000000     0.157100000000     0.172709   
C28      C      0.537730000000     0.516590000000     0.156790000000     0.0837493  
C29      C      0.448640000000     0.437670000000     0.203910000000    -0.110026   
C30      C      0.469550000000     0.426370000000     0.302930000000    -0.0829922  
C31      C      0.539100000000     0.517340000000     0.203250000000    -0.0910966  
C32      C      0.493620000000     0.479760000000     0.277860000000     0.034398   
C33      C      0.493560000000     0.478420000000     0.227820000000     0.0520494  
C34      C      0.469590000000     0.428810000000     0.349490000000     0.0771885  
C35      C      0.519880000000     0.534310000000     0.347910000000     0.0771633  
C36      C      0.518230000000     0.534450000000     0.301350000000    -0.0831168  
C37      C      0.150710000000     0.820280000000     0.460910000000     0.166455   
C38      C      0.165040000000     0.836350000000     0.538650000000     0.0761349  
C39      C      0.195000000000     0.772200000000     0.462010000000    -0.105765   
C40      C      0.257680000000     0.644200000000     0.490300000000    -0.0812075  
C41      C      0.211360000000     0.790620000000     0.540030000000    -0.0865463  
C42      C      0.275380000000     0.707780000000     0.502390000000     0.0324585  
C43      C      0.226500000000     0.757260000000     0.501560000000     0.0482081  
C44      C      0.304040000000     0.598400000000     0.491370000000     0.0721261  
C45      C      0.386120000000     0.677160000000     0.514200000000     0.0718458  
C46      C      0.340510000000     0.723690000000     0.514800000000    -0.0812061  
C47      C      0.840570000000     0.811870000000     0.458300000000     0.173621   
C48      C      0.829940000000     0.821940000000     0.537240000000     0.0853862  
C49      C      0.789120000000     0.764490000000     0.458090000000    -0.11554    
C50      C      0.714870000000     0.640380000000     0.525970000000    -0.0809012  
C51      C      0.780200000000     0.773650000000     0.537920000000    -0.096061   
C52      C      0.708580000000     0.693230000000     0.498440000000     0.0312041  
C53      C      0.759530000000     0.745160000000     0.498070000000     0.0561977  
C54      C      0.665630000000     0.591390000000     0.525960000000     0.0753724  
C55      C      0.605280000000     0.646560000000     0.472740000000     0.0755851  
C56      C      0.653660000000     0.696350000000     0.471340000000    -0.0810791  
C57      C      0.830630000000     0.133280000000     0.544490000000     0.165113   
C58      C      0.852950000000     0.152320000000     0.467900000000     0.0745692  
C59      C      0.783020000000     0.178240000000     0.543370000000    -0.105434   
C60      C      0.657490000000     0.246800000000     0.517340000000    -0.0808674  
C61      C      0.807770000000     0.199170000000     0.466610000000    -0.0875644  
C62      C      0.722260000000     0.261790000000     0.503650000000     0.0321522  
C63      C      0.771480000000     0.212420000000     0.504480000000     0.0479703  
C64      C      0.611920000000     0.293340000000     0.516150000000     0.0718368  
C65      C      0.693190000000     0.370580000000     0.490040000000     0.0714486  
C66      C      0.739480000000     0.324640000000     0.489540000000    -0.0808388  
C67      C      0.176130000000     0.141430000000     0.547020000000     0.173756   
C68      C      0.161740000000     0.154220000000     0.468590000000     0.0848889  
C69      C      0.221570000000     0.194350000000     0.547350000000    -0.115437   
C70      C      0.342470000000     0.273490000000     0.478850000000    -0.0809018  
C71      C      0.208160000000     0.205490000000     0.467970000000    -0.0970806  
C72      C      0.288760000000     0.277620000000     0.506960000000     0.0310205  
C73      C      0.237720000000     0.225870000000     0.507630000000     0.0560632  
C74      C      0.391040000000     0.322990000000     0.478650000000     0.0746652  
C75      C      0.333690000000     0.379720000000     0.532690000000     0.0763207  
C76      C      0.284230000000     0.330860000000     0.534350000000    -0.0815884  
C77      C      0.148710000000     0.814750000000     0.952470000000     0.164855   
C78      C      0.165140000000     0.835320000000     0.029530000000     0.0747562  
C79      C      0.193260000000     0.766990000000     0.954360000000    -0.105526   
C80      C      0.257120000000     0.641460000000     0.982680000000    -0.0796802  
C81      C      0.211680000000     0.789890000000     0.031660000000    -0.0872589  
C82      C      0.274510000000     0.704670000000     0.995750000000     0.0340982  
C83      C      0.225940000000     0.754430000000     0.993950000000     0.0485762  
C84      C      0.302730000000     0.595130000000     0.985180000000     0.0784748  
C85      C      0.384010000000     0.672730000000     0.010740000000     0.0753799  
C86      C      0.339000000000     0.719840000000     0.009960000000    -0.0804936  
C87      C      0.666720000000     0.590760000000     0.026750000000     0.168581   
C88      C      0.599370000000     0.646230000000     0.977900000000     0.0883474  
C89      C      0.713910000000     0.642590000000     0.025460000000    -0.107112   
C90      C      0.773920000000     0.775430000000     0.957270000000    -0.0829899  
C91      C      0.645470000000     0.697910000000     0.975540000000    -0.0843193  
C92      C      0.752730000000     0.749950000000     0.998220000000     0.0376037  
C93      C      0.703020000000     0.696310000000     0.999920000000     0.0515664  
C94      C      0.824080000000     0.823820000000     0.956350000000     0.0806528  
C95      C      0.830650000000     0.822760000000     0.035510000000     0.0788467  
C96      C      0.780850000000     0.774300000000     0.037630000000    -0.0852277  
C97      C      0.834930000000     0.137650000000     0.954600000000     0.164238   
C98      C      0.845490000000     0.140000000000     0.033210000000     0.074377   
C99      C      0.789820000000     0.185030000000     0.957000000000    -0.103914   
C100     C      0.670730000000     0.262980000000     0.970070000000    -0.078339   
C101     C      0.799700000000     0.185970000000     0.036370000000    -0.086317   
C102     C      0.722060000000     0.260220000000     0.000940000000     0.0342638  
C103     C      0.771050000000     0.209980000000     0.998050000000     0.0485349  
C104     C      0.626150000000     0.310410000000     0.973450000000     0.0745688  
C105     C      0.679600000000     0.352100000000     0.037850000000     0.078036   
C106     C      0.725110000000     0.305750000000     0.035330000000    -0.0783108  
C107     C      0.328780000000     0.377490000000     0.015660000000     0.172335   
C108     C      0.399710000000     0.322230000000     0.969150000000     0.0815585  
C109     C      0.282040000000     0.325500000000     0.013100000000    -0.107101   
C110     C      0.224200000000     0.189610000000     0.948100000000    -0.0834855  
C111     C      0.353880000000     0.270290000000     0.965550000000    -0.0894768  
C112     C      0.247230000000     0.216360000000     0.988230000000     0.036422   
C113     C      0.295120000000     0.271520000000     0.988580000000     0.0516252  
C114     C      0.174170000000     0.140890000000     0.948970000000     0.0780603  
C115     C      0.172400000000     0.143750000000     0.028220000000     0.0785936  
C116     C      0.221900000000     0.192470000000     0.028550000000    -0.0850342  
Cu1      Cu     0.998370000000     0.982410000000     0.950410000000     0.873284   
Cu2      Cu     0.001400000000     0.983850000000     0.032450000000     0.85125    
Cu3      Cu     0.999820000000     0.987620000000     0.462050000000     0.872625   
Cu4      Cu     0.998870000000     0.982390000000     0.543920000000     0.875988   
Cu5      Cu     0.546860000000     0.529860000000     0.004800000000     1.16176    
Cu6      Cu     0.450840000000     0.437840000000     0.999600000000     1.15876    
Cu7      Cu     0.547360000000     0.531690000000     0.501490000000     1.14692    
Cu8      Cu     0.450540000000     0.438540000000     0.503680000000     1.15023    
H1       H      0.601090000000     0.530270000000     0.637850000000     0.0283006  
H2       H      0.434160000000     0.408900000000     0.864840000000     0.0269816  
H3       H      0.404500000000     0.449040000000     0.720870000000     0.0551454  
H4       H      0.434860000000     0.406830000000     0.785110000000     0.0573897  
H5       H      0.605680000000     0.528110000000     0.718160000000     0.0578078  
H6       H      0.580050000000     0.567340000000     0.784430000000     0.0783781  
H7       H      0.404350000000     0.446380000000     0.640640000000     0.0279748  
H8       H      0.450470000000     0.386430000000     0.367350000000     0.0274548  
H9       H      0.573940000000     0.548470000000     0.139890000000     0.0370177  
H10      H      0.535680000000     0.577850000000     0.284250000000     0.0551854  
H11      H      0.576610000000     0.548240000000     0.219460000000     0.0590356  
H12      H      0.451590000000     0.382130000000     0.287100000000     0.0568406  
H13      H      0.411980000000     0.407000000000     0.221150000000     0.0787641  
H14      H      0.539650000000     0.577550000000     0.364480000000     0.0277952  
H15      H      0.287710000000     0.549840000000     0.482050000000     0.030277   
H16      H      0.154910000000     0.859820000000     0.569770000000     0.0383736  
H17      H      0.356480000000     0.772240000000     0.524240000000     0.0578194  
H18      H      0.234530000000     0.780700000000     0.571430000000     0.0606678  
H19      H      0.207910000000     0.629700000000     0.480520000000     0.0591444  
H20      H      0.206220000000     0.747850000000     0.431450000000     0.0796679  
H21      H      0.435990000000     0.692110000000     0.523620000000     0.0300795  
H22      H      0.669640000000     0.550000000000     0.546900000000     0.0201249  
H23      H      0.843500000000     0.843930000000     0.568990000000     0.0347161  
H24      H      0.647960000000     0.737110000000     0.449980000000     0.0574375  
H25      H      0.757550000000     0.759130000000     0.569360000000     0.0619459  
H26      H      0.757470000000     0.636970000000     0.546850000000     0.0563288  
H27      H      0.774630000000     0.740500000000     0.427200000000     0.0817713  
H28      H      0.561930000000     0.648490000000     0.452510000000     0.0202029  
H29      H      0.562420000000     0.279010000000     0.526730000000     0.0306086  
H30      H      0.878760000000     0.143860000000     0.437220000000     0.0322676  
H31      H      0.788950000000     0.338640000000     0.478860000000     0.0563842  
H32      H      0.800520000000     0.224220000000     0.435670000000     0.0578496  
H33      H      0.641770000000     0.198900000000     0.528400000000     0.0588406  
H34      H      0.756410000000     0.187740000000     0.573520000000     0.0799081  
H35      H      0.709220000000     0.418580000000     0.479260000000     0.0301037  
H36      H      0.433270000000     0.320350000000     0.457430000000     0.0199991  
H37      H      0.138710000000     0.140950000000     0.437020000000     0.0315186  
H38      H      0.242760000000     0.334750000000     0.556210000000     0.0579599  
H39      H      0.220510000000     0.229410000000     0.436700000000     0.0604755  
H40      H      0.347010000000     0.232210000000     0.457760000000     0.0559504  
H41      H      0.246860000000     0.208600000000     0.577950000000     0.0820308  
H42      H      0.330930000000     0.421680000000     0.553250000000     0.0198173  
H43      H      0.287110000000     0.547380000000     0.973720000000     0.0340266  
H44      H      0.155750000000     0.860500000000     0.060110000000     0.0319604  
H45      H      0.354930000000     0.768200000000     0.019870000000     0.0570087  
H46      H      0.235600000000     0.781760000000     0.063090000000     0.0598356  
H47      H      0.208170000000     0.627640000000     0.970890000000     0.0618596  
H48      H      0.203620000000     0.740910000000     0.924360000000     0.0797474  
H49      H      0.433320000000     0.686890000000     0.021820000000     0.0293245  
H50      H      0.840080000000     0.842070000000     0.924000000000     0.0390477  
H51      H      0.555040000000     0.647000000000     0.958630000000     0.0292534  
H52      H      0.764660000000     0.755770000000     0.069840000000     0.0594538  
H53      H      0.636080000000     0.738780000000     0.955200000000     0.0637595  
H54      H      0.753070000000     0.757000000000     0.926210000000     0.0657999  
H55      H      0.759650000000     0.640660000000     0.043190000000     0.0809845  
H56      H      0.851740000000     0.840230000000     0.066780000000     0.0318636  
H57      H      0.588130000000     0.310560000000     0.948360000000     0.0284374  
H58      H      0.865890000000     0.124300000000     0.064270000000     0.0315902  
H59      H      0.762450000000     0.305860000000     0.060770000000     0.0576797  
H60      H      0.786490000000     0.201890000000     0.069200000000     0.056909   
H61      H      0.664150000000     0.228220000000     0.943500000000     0.0578401  
H62      H      0.769090000000     0.201630000000     0.926360000000     0.0792338  
H63      H      0.681770000000     0.380770000000     0.067730000000     0.0364489  
H64      H      0.156260000000     0.121750000000     0.917290000000     0.0366314  
H65      H      0.445530000000     0.321560000000     0.951580000000     0.0182924  
H66      H      0.239700000000     0.211990000000     0.060150000000     0.0647962  
H67      H      0.364770000000     0.229170000000     0.945970000000     0.0583509  
H68      H      0.243200000000     0.207550000000     0.916400000000     0.058663   
H69      H      0.235340000000     0.326990000000     0.029690000000     0.0827224  
H70      H      0.153380000000     0.126990000000     0.060230000000     0.0320958  
N1       N      0.508290000000     0.486710000000     0.871530000000    -0.214123   
N2       N      0.502620000000     0.488110000000     0.633350000000    -0.204966   
N3       N      0.595700000000     0.574380000000     0.870400000000    -0.0337659  
N4       N      0.493850000000     0.476330000000     0.133460000000    -0.21016    
N5       N      0.495300000000     0.482080000000     0.371790000000    -0.205337   
N6       N      0.406000000000     0.388790000000     0.135440000000    -0.0312898  
N7       N      0.134580000000     0.851820000000     0.499580000000    -0.193406   
N8       N      0.368120000000     0.614690000000     0.502840000000    -0.198164   
N9       N      0.123370000000     0.834630000000     0.418510000000    -0.030598   
N10      N      0.859450000000     0.841720000000     0.497930000000    -0.205932   
N11      N      0.612330000000     0.595760000000     0.499780000000    -0.264629   
N12      N      0.875890000000     0.823660000000     0.417400000000    -0.0331387  
N13      N      0.865130000000     0.119310000000     0.506380000000    -0.194255   
N14      N      0.629560000000     0.355130000000     0.502960000000    -0.197827   
N15      N      0.841310000000     0.102920000000     0.586300000000    -0.0316152  
N16      N      0.144720000000     0.123040000000     0.507700000000    -0.205937   
N17      N      0.385480000000     0.374570000000     0.505180000000    -0.265062   
N18      N      0.168080000000     0.104550000000     0.587280000000    -0.0316561  
N19      N      0.133560000000     0.848450000000     0.990410000000    -0.1948     
N20      N      0.365710000000     0.610240000000     0.999650000000    -0.19364    
N21      N      0.119890000000     0.826390000000     0.910070000000    -0.03125    
N22      N      0.610190000000     0.594890000000     0.003720000000    -0.277437   
N23      N      0.852590000000     0.846680000000     0.995160000000    -0.194782   
N24      N      0.679500000000     0.534730000000     0.052150000000    -0.0594379  
N25      N      0.864050000000     0.115860000000     0.992850000000    -0.194328   
N26      N      0.631640000000     0.356560000000     0.006120000000    -0.189385   
N27      N      0.846520000000     0.111150000000     0.911540000000    -0.0312042  
N28      N      0.387170000000     0.373290000000     0.994780000000    -0.276566   
N29      N      0.147890000000     0.119040000000     0.988740000000    -0.194912   
N30      N      0.314050000000     0.433350000000     0.040730000000    -0.0571811  
O1       O      0.063630000000     0.913370000000     0.953980000000    -0.363624   
O2       O      0.932860000000     0.051170000000     0.955010000000    -0.362608   
O3       O      0.073230000000     0.050510000000     0.952610000000    -0.396577   
O4       O      0.924080000000     0.914530000000     0.956040000000    -0.395344   
O5       O      0.928760000000     0.914230000000     0.030260000000    -0.404447   
O6       O      0.073730000000     0.053150000000     0.026870000000    -0.405338   
O7       O      0.933480000000     0.050530000000     0.028990000000    -0.384839   
O8       O      0.069080000000     0.917090000000     0.027840000000    -0.38479    
O9       O      0.065300000000     0.918630000000     0.464310000000    -0.358735   
O10      O      0.934220000000     0.056250000000     0.467850000000    -0.383988   
O11      O      0.073510000000     0.055170000000     0.468560000000    -0.406723   
O12      O      0.926460000000     0.918990000000     0.463420000000    -0.385895   
O13      O      0.929070000000     0.910910000000     0.537290000000    -0.405439   
O14      O      0.069300000000     0.053960000000     0.542620000000    -0.38418    
O15      O      0.929190000000     0.047430000000     0.541500000000    -0.361797   
O16      O      0.068780000000     0.917970000000     0.538240000000    -0.378612   
O17      O      0.549380000000     0.514110000000     0.941070000000    -0.457461   
O18      O      0.529240000000     0.524130000000     0.067940000000    -0.459326   
O19      O      0.603170000000     0.461870000000     0.018410000000    -0.417641   
O20      O      0.471400000000     0.581260000000     0.999550000000    -0.459173   
O21      O      0.392470000000     0.505190000000     0.008640000000    -0.429962   
O22      O      0.528520000000     0.388530000000     0.994440000000    -0.450252   
O23      O      0.461530000000     0.438120000000     0.064020000000    -0.439179   
O24      O      0.456520000000     0.456300000000     0.936790000000    -0.479363   
O25      O      0.530680000000     0.526880000000     0.438000000000    -0.472836   
O26      O      0.545990000000     0.518390000000     0.565440000000    -0.471168   
O27      O      0.602060000000     0.459320000000     0.495730000000    -0.452785   
O28      O      0.474100000000     0.585860000000     0.508010000000    -0.454582   
O29      O      0.395480000000     0.510330000000     0.497530000000    -0.454431   
O30      O      0.523960000000     0.384500000000     0.509630000000    -0.45491    
O31      O      0.455650000000     0.455250000000     0.567110000000    -0.472427   
O32      O      0.463650000000     0.440300000000     0.439710000000    -0.47297    
O33      O      0.591510000000     0.635200000000     0.864310000000    -0.109231   
O34      O      0.649130000000     0.555120000000     0.887060000000    -0.0909581  
O35      O      0.344070000000     0.386760000000     0.144820000000    -0.0913322  
O36      O      0.428720000000     0.339360000000     0.116710000000    -0.0909471  
O37      O      0.090030000000     0.789730000000     0.396420000000    -0.0886116  
O38      O      0.144900000000     0.886520000000     0.397740000000    -0.0890923  
O39      O      0.844200000000     0.831320000000     0.380500000000    -0.0987089  
O40      O      0.937330000000     0.813060000000     0.415420000000    -0.0786106  
O41      O      0.793360000000     0.068880000000     0.605330000000    -0.0967895  
O42      O      0.892700000000     0.121480000000     0.609720000000    -0.0846537  
O43      O      0.161550000000     0.133250000000     0.625260000000    -0.0956429  
O44      O      0.180930000000     0.044940000000     0.587180000000    -0.0906998  
O45      O      0.084690000000     0.780500000000     0.890230000000    -0.0968556  
O46      O      0.141280000000     0.876390000000     0.887170000000    -0.0896876  
O47      O      0.725190000000     0.540470000000     0.082290000000    -0.110453   
O48      O      0.654390000000     0.476670000000     0.043940000000    -0.0158832  
O49      O      0.862900000000     0.149000000000     0.878350000000    -0.0948123  
O50      O      0.826370000000     0.051970000000     0.903360000000    -0.0894705  
O51      O      0.265700000000     0.427690000000     0.068890000000    -0.0938746  
O52      O      0.340880000000     0.491190000000     0.034060000000    -0.0114744  


