data_structure

_audit_creation_method RASPA-1.0
_audit_creation_date 2023-5-23
_audit_author_name 'Poobodin Mano'

_cell_length_a    30.4048
_cell_length_b    30.4052
_cell_length_c    30.2974
_cell_angle_alpha 89.9999
_cell_angle_beta  89.9998
_cell_angle_gamma 90
_cell_volume      28008.9

_symmetry_cell_setting          triclinic
_symmetry_space_group_name_Hall 'P 1'
_symmetry_space_group_name_H-M  'P 1'
_symmetry_Int_Tables_number     1

_symmetry_equiv_pos_as_xyz 'x,y,z'

loop_
_atom_site_label
_atom_site_type_symbol
_atom_site_fract_x
_atom_site_fract_y
_atom_site_fract_z
_atom_site_charge
C1       C      0.994480000000     0.082160000000     0.496340000000     0.405735   
C2       C      0.994470000000     0.906750000000     0.496330000000     0.405705   
C3       C      0.994450000000     0.994450000000     0.584360000000     0.405731   
C4       C      0.994510000000     0.994460000000     0.408310000000     0.405494   
C5       C      0.994480000000     0.406750000000     0.496250000000     0.405696   
C6       C      0.994470000000     0.582160000000     0.496240000000     0.405557   
C7       C      0.994500000000     0.494450000000     0.408220000000     0.405642   
C8       C      0.994440000000     0.494460000000     0.584270000000     0.405493   
C9       C      0.494480000000     0.082170000000     0.496230000000     0.405852   
C10      C      0.494460000000     0.906770000000     0.496200000000     0.405838   
C11      C      0.494500000000     0.994460000000     0.584240000000     0.405646   
C12      C      0.494440000000     0.994480000000     0.408190000000     0.405738   
C13      C      0.494470000000     0.406770000000     0.496100000000     0.405851   
C14      C      0.494460000000     0.582180000000     0.496080000000     0.4058     
C15      C      0.494430000000     0.494460000000     0.408070000000     0.405664   
C16      C      0.494490000000     0.494480000000     0.584120000000     0.405699   
C17      C      0.906770000000     0.994490000000     0.996380000000     0.405781   
C18      C      0.082180000000     0.994480000000     0.996280000000     0.405751   
C19      C      0.994430000000     0.994480000000     0.908310000000     0.405534   
C20      C      0.994520000000     0.994490000000     0.084360000000     0.40564    
C21      C      0.906760000000     0.494470000000     0.996290000000     0.405813   
C22      C      0.082170000000     0.494460000000     0.996180000000     0.405863   
C23      C      0.994420000000     0.494470000000     0.908220000000     0.405721   
C24      C      0.994520000000     0.494460000000     0.084270000000     0.405725   
C25      C      0.406770000000     0.994460000000     0.996170000000     0.40579    
C26      C      0.582170000000     0.994470000000     0.996270000000     0.40583    
C27      C      0.494520000000     0.994460000000     0.908200000000     0.40567    
C28      C      0.494430000000     0.994470000000     0.084250000000     0.405583   
C29      C      0.406760000000     0.494430000000     0.996040000000     0.405833   
C30      C      0.582170000000     0.494450000000     0.996150000000     0.405884   
C31      C      0.494520000000     0.494450000000     0.908070000000     0.405761   
C32      C      0.494420000000     0.494440000000     0.084120000000     0.405735   
C33      C      0.792900000000     0.456230000000     0.006420000000    -0.0851575  
C34      C      0.769070000000     0.494470000000     0.996280000000     0.0341212  
C35      C      0.792900000000     0.532720000000     0.986160000000    -0.0852429  
C36      C      0.838830000000     0.532290000000     0.986950000000     0.0701855  
C37      C      0.838830000000     0.456660000000     0.005650000000     0.0701901  
C38      C      0.719860000000     0.494460000000     0.996260000000     0.0341083  
C39      C      0.696040000000     0.456220000000     0.986100000000    -0.0852015  
C40      C      0.650120000000     0.456640000000     0.986850000000     0.0701095  
C41      C      0.650100000000     0.532270000000     0.005560000000     0.0702409  
C42      C      0.696020000000     0.532710000000     0.006370000000    -0.085184   
C43      C      0.196050000000     0.532690000000     0.006230000000    -0.0851593  
C44      C      0.219860000000     0.494440000000     0.996070000000     0.0341206  
C45      C      0.196020000000     0.456200000000     0.985950000000    -0.0852406  
C46      C      0.150100000000     0.456630000000     0.986770000000     0.0701272  
C47      C      0.150120000000     0.532260000000     0.005480000000     0.0702176  
C48      C      0.269070000000     0.494430000000     0.996040000000     0.0341382  
C49      C      0.292900000000     0.532680000000     0.985900000000    -0.0852548  
C50      C      0.338820000000     0.532250000000     0.986680000000     0.0701405  
C51      C      0.338820000000     0.456620000000     0.005380000000     0.0702555  
C52      C      0.292900000000     0.456190000000     0.006170000000    -0.0852084  
C53      C      0.696030000000     0.032720000000     0.006490000000    -0.0850431  
C54      C      0.719870000000     0.994480000000     0.996370000000     0.0340175  
C55      C      0.696050000000     0.956230000000     0.986220000000    -0.085212   
C56      C      0.650120000000     0.956660000000     0.986970000000     0.0701372  
C57      C      0.650100000000     0.032290000000     0.005670000000     0.0702421  
C58      C      0.769080000000     0.994490000000     0.996390000000     0.0340747  
C59      C      0.792900000000     0.032730000000     0.986260000000    -0.0851384  
C60      C      0.838830000000     0.032310000000     0.987040000000     0.0701359  
C61      C      0.838830000000     0.956680000000     0.005760000000     0.0701974  
C62      C      0.792900000000     0.956240000000     0.006530000000    -0.0851909  
C63      C      0.196050000000     0.032710000000     0.006340000000    -0.0850662  
C64      C      0.219870000000     0.994470000000     0.996190000000     0.0340467  
C65      C      0.196030000000     0.956220000000     0.986070000000    -0.0852513  
C66      C      0.150110000000     0.956660000000     0.986880000000     0.0701734  
C67      C      0.150130000000     0.032290000000     0.005590000000     0.0702203  
C68      C      0.269080000000     0.994460000000     0.996170000000     0.0340509  
C69      C      0.292910000000     0.032700000000     0.986030000000    -0.0851504  
C70      C      0.338830000000     0.032270000000     0.986800000000     0.0701653  
C71      C      0.338830000000     0.956640000000     0.005520000000     0.0701856  
C72      C      0.292900000000     0.956210000000     0.006300000000    -0.0851537  
C73      C      0.533000000000     0.485610000000     0.293770000000    -0.0866232  
C74      C      0.494390000000     0.494440000000     0.270420000000     0.0344088  
C75      C      0.455800000000     0.503270000000     0.293780000000    -0.086609   
C76      C      0.456250000000     0.502600000000     0.339880000000     0.0701564  
C77      C      0.532570000000     0.486300000000     0.339860000000     0.0702304  
C78      C      0.494380000000     0.494430000000     0.221760000000     0.0344273  
C79      C      0.485540000000     0.533030000000     0.198410000000    -0.0866355  
C80      C      0.486230000000     0.532590000000     0.152310000000     0.0701829  
C81      C      0.502550000000     0.456270000000     0.152310000000     0.0702079  
C82      C      0.503220000000     0.455830000000     0.198410000000    -0.0866249  
C83      C      0.533130000000     0.503310000000     0.698400000000    -0.0866849  
C84      C      0.494530000000     0.494470000000     0.721760000000     0.0344317  
C85      C      0.455930000000     0.485640000000     0.698420000000    -0.0866022  
C86      C      0.456350000000     0.486320000000     0.652320000000     0.070146   
C87      C      0.532670000000     0.502640000000     0.652300000000     0.0702437  
C88      C      0.494550000000     0.494460000000     0.770420000000     0.0344255  
C89      C      0.485720000000     0.455850000000     0.793770000000    -0.0866771  
C90      C      0.486390000000     0.456290000000     0.839860000000     0.0702074  
C91      C      0.502690000000     0.532610000000     0.839880000000     0.0702305  
C92      C      0.503380000000     0.533060000000     0.793780000000    -0.0866654  
C93      C      0.485560000000     0.033070000000     0.198530000000    -0.0865145  
C94      C      0.494400000000     0.994480000000     0.221890000000     0.0343369  
C95      C      0.503230000000     0.955870000000     0.198540000000    -0.0866535  
C96      C      0.502560000000     0.956310000000     0.152450000000     0.0701865  
C97      C      0.486250000000     0.032630000000     0.152440000000     0.0702532  
C98      C      0.494400000000     0.994480000000     0.270550000000     0.0343523  
C99      C      0.533010000000     0.985650000000     0.293890000000    -0.0865912  
C100     C      0.532590000000     0.986330000000     0.339990000000     0.0701419  
C101     C      0.456270000000     0.002640000000     0.340010000000     0.0702963  
C102     C      0.455810000000     0.003320000000     0.293910000000    -0.0865818  
C103     C      0.455930000000     0.985620000000     0.698540000000    -0.0865683  
C104     C      0.494530000000     0.994450000000     0.721890000000     0.0342803  
C105     C      0.533130000000     0.003280000000     0.698520000000    -0.0864686  
C106     C      0.532680000000     0.002600000000     0.652430000000     0.0702275  
C107     C      0.456350000000     0.986300000000     0.652450000000     0.0701286  
C108     C      0.494550000000     0.994450000000     0.770550000000     0.0343711  
C109     C      0.485720000000     0.955850000000     0.793910000000    -0.0866427  
C110     C      0.486390000000     0.956290000000     0.840000000000     0.0701996  
C111     C      0.502690000000     0.032610000000     0.840000000000     0.0702508  
C112     C      0.503380000000     0.033050000000     0.793900000000    -0.0865805  
C113     C      0.456210000000     0.696030000000     0.506250000000    -0.0852367  
C114     C      0.494450000000     0.719870000000     0.496120000000     0.0341721  
C115     C      0.532690000000     0.696040000000     0.485970000000    -0.0852179  
C116     C      0.532260000000     0.650120000000     0.486730000000     0.0701612  
C117     C      0.456640000000     0.650110000000     0.505460000000     0.0701985  
C118     C      0.494450000000     0.769070000000     0.496140000000     0.034151   
C119     C      0.456200000000     0.792910000000     0.486040000000    -0.0852408  
C120     C      0.456640000000     0.838840000000     0.486840000000     0.0701617  
C121     C      0.532280000000     0.838820000000     0.505520000000     0.0701519  
C122     C      0.532710000000     0.792900000000     0.506270000000    -0.0852262  
C123     C      0.532720000000     0.196040000000     0.486050000000    -0.085245   
C124     C      0.494480000000     0.219870000000     0.496180000000     0.0341819  
C125     C      0.456240000000     0.196040000000     0.506340000000    -0.0852169  
C126     C      0.456670000000     0.150120000000     0.505580000000     0.0701654  
C127     C      0.532290000000     0.150110000000     0.486850000000     0.0701692  
C128     C      0.494480000000     0.269070000000     0.496160000000     0.0341646  
C129     C      0.532730000000     0.292910000000     0.506270000000    -0.0852577  
C130     C      0.532290000000     0.338840000000     0.505470000000     0.070175   
C131     C      0.456660000000     0.338820000000     0.486790000000     0.0702009  
C132     C      0.456230000000     0.292900000000     0.486030000000    -0.0852248  
C133     C      0.955930000000     0.503280000000     0.293920000000    -0.0865895  
C134     C      0.994540000000     0.494450000000     0.270570000000     0.0343119  
C135     C      0.033140000000     0.485620000000     0.293940000000    -0.0865545  
C136     C      0.032680000000     0.486290000000     0.340030000000     0.0702507  
C137     C      0.956360000000     0.502600000000     0.340010000000     0.0701838  
C138     C      0.994550000000     0.494450000000     0.221910000000     0.0343466  
C139     C      0.003380000000     0.455860000000     0.198550000000    -0.0865245  
C140     C      0.002690000000     0.456300000000     0.152460000000     0.0702795  
C141     C      0.986390000000     0.532620000000     0.152470000000     0.0701808  
C142     C      0.985720000000     0.533060000000     0.198560000000    -0.0866315  
C143     C      0.033010000000     0.503310000000     0.698570000000    -0.0865378  
C144     C      0.994400000000     0.494470000000     0.721910000000     0.0343336  
C145     C      0.955810000000     0.485630000000     0.698550000000    -0.0865786  
C146     C      0.956260000000     0.486310000000     0.652450000000     0.0701354  
C147     C      0.032580000000     0.502620000000     0.652470000000     0.0702574  
C148     C      0.994390000000     0.494470000000     0.770570000000     0.0343244  
C149     C      0.003230000000     0.533070000000     0.793930000000    -0.0865423  
C150     C      0.002550000000     0.532630000000     0.840020000000     0.0702664  
C151     C      0.986240000000     0.456310000000     0.840020000000     0.0701731  
C152     C      0.985550000000     0.455870000000     0.793930000000    -0.0866131  
C153     C      0.955940000000     0.003320000000     0.294010000000    -0.0865274  
C154     C      0.994540000000     0.994480000000     0.270670000000     0.0342811  
C155     C      0.033140000000     0.985640000000     0.294030000000    -0.0865633  
C156     C      0.032690000000     0.986320000000     0.340120000000     0.0702053  
C157     C      0.956360000000     0.002630000000     0.340100000000     0.0701906  
C158     C      0.994560000000     0.994490000000     0.222010000000     0.0342457  
C159     C      0.985720000000     0.033090000000     0.198650000000    -0.086539   
C160     C      0.986400000000     0.032650000000     0.152560000000     0.0702399  
C161     C      0.002700000000     0.956330000000     0.152560000000     0.0702294  
C162     C      0.003390000000     0.955890000000     0.198650000000    -0.0865291  
C163     C      0.003240000000     0.033070000000     0.794010000000    -0.0865201  
C164     C      0.994400000000     0.994470000000     0.770670000000     0.0343197  
C165     C      0.985560000000     0.955870000000     0.794020000000    -0.0866516  
C166     C      0.986250000000     0.956320000000     0.840120000000     0.0701598  
C167     C      0.002560000000     0.032630000000     0.840110000000     0.0703483  
C168     C      0.994410000000     0.994460000000     0.722010000000     0.0342145  
C169     C      0.033020000000     0.003290000000     0.698660000000    -0.0864327  
C170     C      0.032590000000     0.002600000000     0.652570000000     0.0703273  
C171     C      0.956270000000     0.986300000000     0.652550000000     0.0701323  
C172     C      0.955810000000     0.985620000000     0.698640000000    -0.0866116  
C173     C      0.032710000000     0.792880000000     0.506440000000    -0.085181   
C174     C      0.994470000000     0.769060000000     0.496290000000     0.0341382  
C175     C      0.956230000000     0.792890000000     0.486150000000    -0.0852563  
C176     C      0.956660000000     0.838810000000     0.486940000000     0.0701523  
C177     C      0.032280000000     0.838810000000     0.505670000000     0.0702424  
C178     C      0.994470000000     0.719850000000     0.496270000000     0.0340867  
C179     C      0.032720000000     0.696020000000     0.486140000000    -0.0851743  
C180     C      0.032290000000     0.650100000000     0.486910000000     0.0702157  
C181     C      0.956650000000     0.650090000000     0.505590000000     0.0701035  
C182     C      0.956220000000     0.696020000000     0.506380000000    -0.0851921  
C183     C      0.956240000000     0.292880000000     0.486140000000    -0.0852471  
C184     C      0.994480000000     0.269060000000     0.496300000000     0.034134   
C185     C      0.032730000000     0.292890000000     0.506440000000    -0.0852331  
C186     C      0.032290000000     0.338810000000     0.505640000000     0.0702511  
C187     C      0.956670000000     0.338810000000     0.486910000000     0.0701701  
C188     C      0.994490000000     0.219850000000     0.496320000000     0.0341082  
C189     C      0.956240000000     0.196020000000     0.506440000000    -0.0852222  
C190     C      0.956670000000     0.150100000000     0.505670000000     0.0701445  
C191     C      0.032300000000     0.150090000000     0.486990000000     0.0702752  
C192     C      0.032740000000     0.196020000000     0.486200000000    -0.0852022  
Cu1      Cu     0.953940000000     0.994450000000     0.496320000000     0.846095   
Cu2      Cu     0.035020000000     0.994450000000     0.496350000000     0.846018   
Cu3      Cu     0.953940000000     0.494450000000     0.496230000000     0.845897   
Cu4      Cu     0.035010000000     0.494450000000     0.496260000000     0.846198   
Cu5      Cu     0.453930000000     0.994470000000     0.496230000000     0.846074   
Cu6      Cu     0.535010000000     0.994470000000     0.496210000000     0.845997   
Cu7      Cu     0.453920000000     0.494470000000     0.496100000000     0.846039   
Cu8      Cu     0.535000000000     0.494470000000     0.496080000000     0.84625    
Cu9      Cu     0.994470000000     0.035020000000     0.996330000000     0.846015   
Cu10     Cu     0.994470000000     0.953950000000     0.996340000000     0.84584    
Cu11     Cu     0.994470000000     0.535000000000     0.996240000000     0.846049   
Cu12     Cu     0.994460000000     0.453930000000     0.996240000000     0.84594    
Cu13     Cu     0.494470000000     0.035000000000     0.996220000000     0.846164   
Cu14     Cu     0.494470000000     0.953920000000     0.996220000000     0.846052   
Cu15     Cu     0.494460000000     0.534980000000     0.996090000000     0.846193   
Cu16     Cu     0.494470000000     0.453900000000     0.996090000000     0.846058   
H1       H      0.776450000000     0.562930000000     0.977010000000     0.0505005  
H2       H      0.855730000000     0.562650000000     0.978910000000     0.0262473  
H3       H      0.855730000000     0.426300000000     0.013700000000     0.0262741  
H4       H      0.776450000000     0.426020000000     0.015570000000     0.050517   
H5       H      0.712510000000     0.426010000000     0.976960000000     0.0504787  
H6       H      0.633220000000     0.426280000000     0.978790000000     0.0262754  
H7       H      0.633180000000     0.562630000000     0.013590000000     0.0262747  
H8       H      0.712460000000     0.562920000000     0.015540000000     0.0505233  
H9       H      0.212460000000     0.425990000000     0.976790000000     0.0505077  
H10      H      0.133180000000     0.426280000000     0.978740000000     0.026282   
H11      H      0.133220000000     0.562630000000     0.013540000000     0.0262964  
H12      H      0.212510000000     0.562900000000     0.015370000000     0.0505214  
H13      H      0.276450000000     0.562890000000     0.976760000000     0.050509   
H14      H      0.355730000000     0.562610000000     0.978630000000     0.0262633  
H15      H      0.355730000000     0.426250000000     0.013420000000     0.0262747  
H16      H      0.276450000000     0.425980000000     0.015320000000     0.0505359  
H17      H      0.712510000000     0.926020000000     0.977090000000     0.0504896  
H18      H      0.633230000000     0.926290000000     0.978920000000     0.0262615  
H19      H      0.633190000000     0.062650000000     0.013710000000     0.0262858  
H20      H      0.712470000000     0.062940000000     0.015640000000     0.0504955  
H21      H      0.776450000000     0.062940000000     0.977110000000     0.0504866  
H22      H      0.855740000000     0.062670000000     0.979000000000     0.0262765  
H23      H      0.855740000000     0.926320000000     0.013800000000     0.0262821  
H24      H      0.776460000000     0.926030000000     0.015680000000     0.0505304  
H25      H      0.212470000000     0.926010000000     0.976910000000     0.050506   
H26      H      0.133190000000     0.926300000000     0.978850000000     0.0262715  
H27      H      0.133220000000     0.062650000000     0.013640000000     0.0263087  
H28      H      0.212510000000     0.062920000000     0.015480000000     0.0505133  
H29      H      0.276460000000     0.062910000000     0.976880000000     0.0504933  
H30      H      0.355740000000     0.062630000000     0.978760000000     0.0262736  
H31      H      0.355740000000     0.926280000000     0.013560000000     0.0262877  
H32      H      0.276450000000     0.926000000000     0.015450000000     0.0505185  
H33      H      0.425360000000     0.510150000000     0.276510000000     0.0527721  
H34      H      0.425590000000     0.509370000000     0.356830000000     0.0265116  
H35      H      0.563250000000     0.479530000000     0.356800000000     0.0265007  
H36      H      0.563430000000     0.478730000000     0.276470000000     0.0527663  
H37      H      0.478660000000     0.563460000000     0.215690000000     0.052786   
H38      H      0.479460000000     0.563260000000     0.135370000000     0.0265024  
H39      H      0.509320000000     0.425600000000     0.135370000000     0.0265041  
H40      H      0.510100000000     0.425400000000     0.215700000000     0.0527765  
H41      H      0.425500000000     0.478750000000     0.715710000000     0.0527624  
H42      H      0.425680000000     0.479550000000     0.635390000000     0.0265033  
H43      H      0.563340000000     0.509410000000     0.635350000000     0.0264801  
H44      H      0.563560000000     0.510190000000     0.715670000000     0.052803   
H45      H      0.478840000000     0.425430000000     0.776480000000     0.0528007  
H46      H      0.479620000000     0.425620000000     0.856800000000     0.0264947  
H47      H      0.509460000000     0.563280000000     0.856820000000     0.0264804  
H48      H      0.510250000000     0.563490000000     0.776500000000     0.0527926  
H49      H      0.510110000000     0.925450000000     0.215830000000     0.0527931  
H50      H      0.509330000000     0.925640000000     0.135500000000     0.026512   
H51      H      0.479470000000     0.063300000000     0.135490000000     0.0265037  
H52      H      0.478680000000     0.063510000000     0.215820000000     0.0527487  
H53      H      0.563440000000     0.978760000000     0.276600000000     0.0527493  
H54      H      0.563260000000     0.979560000000     0.356920000000     0.0264928  
H55      H      0.425600000000     0.009410000000     0.356960000000     0.0265078  
H56      H      0.425380000000     0.010200000000     0.276630000000     0.0527998  
H57      H      0.563570000000     0.010160000000     0.715810000000     0.0527434  
H58      H      0.563340000000     0.009370000000     0.635480000000     0.0265248  
H59      H      0.425680000000     0.979540000000     0.635520000000     0.0265023  
H60      H      0.425500000000     0.978750000000     0.715840000000     0.0527408  
H61      H      0.478840000000     0.925420000000     0.776620000000     0.05277    
H62      H      0.479620000000     0.925620000000     0.856940000000     0.0264847  
H63      H      0.509460000000     0.063280000000     0.856940000000     0.0264898  
H64      H      0.510250000000     0.063480000000     0.776620000000     0.0527889  
H65      H      0.562900000000     0.712500000000     0.476810000000     0.050495   
H66      H      0.562620000000     0.633210000000     0.478670000000     0.0262684  
H67      H      0.426280000000     0.633200000000     0.513510000000     0.0262599  
H68      H      0.426000000000     0.712480000000     0.515420000000     0.0505045  
H69      H      0.425990000000     0.776470000000     0.476890000000     0.0505225  
H70      H      0.426270000000     0.855750000000     0.478820000000     0.0262621  
H71      H      0.562640000000     0.855720000000     0.513560000000     0.0262615  
H72      H      0.562920000000     0.776440000000     0.515400000000     0.0505102  
H73      H      0.426030000000     0.212500000000     0.515500000000     0.0505018  
H74      H      0.426310000000     0.133210000000     0.513640000000     0.0262843  
H75      H      0.562650000000     0.133200000000     0.478800000000     0.0262798  
H76      H      0.562930000000     0.212480000000     0.476890000000     0.050523   
H77      H      0.562940000000     0.276470000000     0.515410000000     0.0505336  
H78      H      0.562660000000     0.355750000000     0.513490000000     0.0262637  
H79      H      0.426290000000     0.355720000000     0.478750000000     0.0262583  
H80      H      0.426010000000     0.276440000000     0.476900000000     0.0504999  
H81      H      0.063570000000     0.478740000000     0.276660000000     0.0527836  
H82      H      0.063350000000     0.479530000000     0.356980000000     0.0264962  
H83      H      0.925690000000     0.509360000000     0.356950000000     0.0265055  
H84      H      0.925500000000     0.510160000000     0.276620000000     0.0527548  
H85      H      0.010260000000     0.425420000000     0.215840000000     0.0527625  
H86      H      0.009460000000     0.425630000000     0.135510000000     0.026523   
H87      H      0.979620000000     0.563290000000     0.135530000000     0.0264996  
H88      H      0.978850000000     0.563490000000     0.215850000000     0.0527696  
H89      H      0.925370000000     0.478750000000     0.715830000000     0.0527485  
H90      H      0.925600000000     0.479540000000     0.635500000000     0.0265126  
H91      H      0.063260000000     0.509390000000     0.635540000000     0.0264975  
H92      H      0.063440000000     0.510190000000     0.715860000000     0.0527672  
H93      H      0.010110000000     0.563500000000     0.776640000000     0.0527756  
H94      H      0.009330000000     0.563300000000     0.856960000000     0.0265047  
H95      H      0.979460000000     0.425650000000     0.856970000000     0.0264966  
H96      H      0.978670000000     0.425440000000     0.776640000000     0.0527572  
H97      H      0.063570000000     0.978770000000     0.276750000000     0.0527771  
H98      H      0.063350000000     0.979540000000     0.357080000000     0.0265045  
H99      H      0.925690000000     0.009400000000     0.357040000000     0.0265304  
H100     H      0.925510000000     0.010200000000     0.276720000000     0.052772   
H101     H      0.978850000000     0.063520000000     0.215940000000     0.0527633  
H102     H      0.979620000000     0.063320000000     0.135620000000     0.0264957  
H103     H      0.009460000000     0.925660000000     0.135610000000     0.0265334  
H104     H      0.010260000000     0.925460000000     0.215940000000     0.0527775  
H105     H      0.978680000000     0.925440000000     0.776740000000     0.0527705  
H106     H      0.979470000000     0.925650000000     0.857070000000     0.0264997  
H107     H      0.009330000000     0.063300000000     0.857050000000     0.0265076  
H108     H      0.010120000000     0.063500000000     0.776730000000     0.0527961  
H109     H      0.063450000000     0.010170000000     0.715960000000     0.0527585  
H110     H      0.063270000000     0.009370000000     0.635630000000     0.026518   
H111     H      0.925610000000     0.979530000000     0.635590000000     0.0265044  
H112     H      0.925380000000     0.978750000000     0.715920000000     0.0527636  
H113     H      0.926020000000     0.776450000000     0.476980000000     0.050512   
H114     H      0.926300000000     0.855720000000     0.478900000000     0.0262573  
H115     H      0.062640000000     0.855710000000     0.513730000000     0.0262542  
H116     H      0.062920000000     0.776430000000     0.515590000000     0.0505127  
H117     H      0.062930000000     0.712470000000     0.477010000000     0.0505214  
H118     H      0.062650000000     0.633190000000     0.478870000000     0.0262684  
H119     H      0.926280000000     0.633180000000     0.513610000000     0.0262846  
H120     H      0.926000000000     0.712460000000     0.515520000000     0.0504951  
H121     H      0.062930000000     0.276450000000     0.515600000000     0.0505503  
H122     H      0.062650000000     0.355730000000     0.513690000000     0.0262645  
H123     H      0.926310000000     0.355710000000     0.478850000000     0.0262649  
H124     H      0.926030000000     0.276430000000     0.476990000000     0.0505156  
H125     H      0.926020000000     0.212470000000     0.515570000000     0.0505024  
H126     H      0.926300000000     0.133190000000     0.513710000000     0.0262789  
H127     H      0.062670000000     0.133180000000     0.478970000000     0.0262664  
H128     H      0.062950000000     0.212460000000     0.477060000000     0.0505383  
N1       N      0.861640000000     0.494480000000     0.996300000000    -0.192769   
N2       N      0.627290000000     0.494460000000     0.996180000000    -0.192759   
N3       N      0.127290000000     0.494450000000     0.996150000000    -0.192748   
N4       N      0.361640000000     0.494430000000     0.996030000000    -0.192765   
N5       N      0.627300000000     0.994470000000     0.996310000000    -0.19275    
N6       N      0.861650000000     0.994490000000     0.996400000000    -0.192772   
N7       N      0.127300000000     0.994470000000     0.996250000000    -0.192774   
N8       N      0.361650000000     0.994450000000     0.996160000000    -0.192776   
N9       N      0.494420000000     0.494450000000     0.362770000000    -0.192564   
N10      N      0.494400000000     0.494430000000     0.129410000000    -0.192623   
N11      N      0.494510000000     0.494480000000     0.629410000000    -0.192625   
N12      N      0.494540000000     0.494450000000     0.862770000000    -0.192594   
N13      N      0.494410000000     0.994470000000     0.129540000000    -0.192642   
N14      N      0.494430000000     0.994480000000     0.362900000000    -0.192672   
N15      N      0.494510000000     0.994460000000     0.629540000000    -0.192574   
N16      N      0.494540000000     0.994450000000     0.862900000000    -0.192619   
N17      N      0.494450000000     0.627300000000     0.496090000000    -0.192736   
N18      N      0.494460000000     0.861640000000     0.496190000000    -0.192683   
N19      N      0.494480000000     0.127300000000     0.496220000000    -0.19268    
N20      N      0.494470000000     0.361640000000     0.496120000000    -0.192706   
N21      N      0.994510000000     0.494440000000     0.362920000000    -0.192608   
N22      N      0.994540000000     0.494460000000     0.129560000000    -0.192664   
N23      N      0.994430000000     0.494460000000     0.629560000000    -0.192622   
N24      N      0.994400000000     0.494470000000     0.862920000000    -0.192619   
N25      N      0.994520000000     0.994470000000     0.363020000000    -0.192633   
N26      N      0.994540000000     0.994490000000     0.129650000000    -0.19268    
N27      N      0.994410000000     0.994480000000     0.863020000000    -0.192685   
N28      N      0.994440000000     0.994450000000     0.629650000000    -0.192698   
N29      N      0.994470000000     0.861620000000     0.496320000000    -0.192719   
N30      N      0.994470000000     0.627280000000     0.496240000000    -0.192712   
N31      N      0.994480000000     0.361620000000     0.496260000000    -0.19272    
N32      N      0.994490000000     0.127280000000     0.496340000000    -0.19277    
O1       O      0.957920000000     0.061100000000     0.498710000000    -0.39747    
O2       O      0.957910000000     0.927810000000     0.493940000000    -0.397565   
O3       O      0.957890000000     0.992130000000     0.563210000000    -0.397518   
O4       O      0.957930000000     0.996780000000     0.429440000000    -0.397454   
O5       O      0.031070000000     0.992140000000     0.429460000000    -0.397385   
O6       O      0.031020000000     0.996760000000     0.563240000000    -0.397499   
O7       O      0.031040000000     0.927800000000     0.498720000000    -0.397406   
O8       O      0.031050000000     0.061100000000     0.493970000000    -0.39733    
O9       O      0.957910000000     0.427800000000     0.493860000000    -0.397446   
O10      O      0.957900000000     0.561100000000     0.498610000000    -0.397386   
O11      O      0.957930000000     0.496760000000     0.429340000000    -0.397491   
O12      O      0.957880000000     0.492140000000     0.563120000000    -0.397414   
O13      O      0.031020000000     0.496780000000     0.563140000000    -0.397372   
O14      O      0.031060000000     0.492130000000     0.429370000000    -0.397424   
O15      O      0.031040000000     0.561100000000     0.493870000000    -0.397353   
O16      O      0.031040000000     0.427810000000     0.498640000000    -0.397508   
O17      O      0.457910000000     0.061120000000     0.498620000000    -0.39745    
O18      O      0.457900000000     0.927830000000     0.493840000000    -0.3976     
O19      O      0.457920000000     0.992150000000     0.563120000000    -0.397453   
O20      O      0.457880000000     0.996800000000     0.429340000000    -0.39751    
O21      O      0.531010000000     0.992160000000     0.429320000000    -0.397496   
O22      O      0.531060000000     0.996780000000     0.563100000000    -0.397527   
O23      O      0.531030000000     0.927820000000     0.498580000000    -0.397495   
O24      O      0.531040000000     0.061120000000     0.493840000000    -0.397508   
O25      O      0.457900000000     0.427820000000     0.493730000000    -0.397506   
O26      O      0.457890000000     0.561120000000     0.498470000000    -0.39744    
O27      O      0.457870000000     0.496780000000     0.429210000000    -0.397508   
O28      O      0.457920000000     0.492160000000     0.562990000000    -0.397467   
O29      O      0.531050000000     0.496800000000     0.562960000000    -0.397502   
O30      O      0.531010000000     0.492150000000     0.429190000000    -0.397468   
O31      O      0.531020000000     0.561120000000     0.493690000000    -0.397529   
O32      O      0.531030000000     0.427830000000     0.498470000000    -0.397615   
O33      O      0.927830000000     0.031050000000     0.993990000000    -0.397538   
O34      O      0.061130000000     0.031040000000     0.998670000000    -0.397408   
O35      O      0.996750000000     0.031050000000     0.929440000000    -0.397413   
O36      O      0.992200000000     0.031050000000     0.063220000000    -0.397417   
O37      O      0.996830000000     0.957920000000     0.063220000000    -0.397448   
O38      O      0.992120000000     0.957910000000     0.929450000000    -0.397408   
O39      O      0.061120000000     0.957910000000     0.993920000000    -0.397384   
O40      O      0.927820000000     0.957920000000     0.998750000000    -0.397496   
O41      O      0.927820000000     0.531040000000     0.993900000000    -0.397467   
O42      O      0.061120000000     0.531020000000     0.998580000000    -0.397542   
O43      O      0.996750000000     0.531030000000     0.929360000000    -0.397605   
O44      O      0.992190000000     0.531030000000     0.063130000000    -0.397422   
O45      O      0.996820000000     0.457900000000     0.063130000000    -0.397477   
O46      O      0.992110000000     0.457900000000     0.929350000000    -0.397477   
O47      O      0.061110000000     0.457890000000     0.993820000000    -0.397417   
O48      O      0.927820000000     0.457910000000     0.998660000000    -0.397588   
O49      O      0.427820000000     0.031020000000     0.993800000000    -0.397519   
O50      O      0.561120000000     0.031030000000     0.998640000000    -0.397546   
O51      O      0.496820000000     0.031020000000     0.929330000000    -0.397499   
O52      O      0.492120000000     0.031030000000     0.063100000000    -0.397404   
O53      O      0.496760000000     0.957900000000     0.063110000000    -0.397377   
O54      O      0.492200000000     0.957890000000     0.929340000000    -0.397521   
O55      O      0.561130000000     0.957900000000     0.993880000000    -0.397506   
O56      O      0.427830000000     0.957890000000     0.998570000000    -0.397551   
O57      O      0.427820000000     0.531000000000     0.993670000000    -0.397539   
O58      O      0.561110000000     0.531010000000     0.998510000000    -0.397577   
O59      O      0.496820000000     0.531010000000     0.929210000000    -0.397586   
O60      O      0.492110000000     0.531000000000     0.062980000000    -0.397491   
O61      O      0.496750000000     0.457870000000     0.062980000000    -0.39741    
O62      O      0.492190000000     0.457880000000     0.929200000000    -0.397491   
O63      O      0.561120000000     0.457880000000     0.993750000000    -0.397527   
O64      O      0.427820000000     0.457870000000     0.998430000000    -0.397556   


