data_structure

_audit_creation_method RASPA-1.0
_audit_creation_date 2023-5-23
_audit_author_name 'Poobodin Mano'

_cell_length_a    28.7581
_cell_length_b    30.1624
_cell_length_c    30.2524
_cell_angle_alpha 89.9998
_cell_angle_beta  89.999
_cell_angle_gamma 90.0048
_cell_volume      26241.3

_symmetry_cell_setting          triclinic
_symmetry_space_group_name_Hall 'P 1'
_symmetry_space_group_name_H-M  'P 1'
_symmetry_Int_Tables_number     1

_symmetry_equiv_pos_as_xyz 'x,y,z'

loop_
_atom_site_label
_atom_site_type_symbol
_atom_site_fract_x
_atom_site_fract_y
_atom_site_fract_z
_atom_site_charge
C1       C      0.981120000000     0.498480000000     0.084570000000     0.409979   
C2       C      0.981100000000     0.498300000000     0.909150000000     0.409888   
C3       C      0.981810000000     0.586790000000     0.996850000000     0.405737   
C4       C      0.980420000000     0.409990000000     0.997010000000     0.405748   
C5       C      0.981140000000     0.498410000000     0.584560000000     0.409855   
C6       C      0.981170000000     0.498580000000     0.409150000000     0.409972   
C7       C      0.980440000000     0.586890000000     0.496870000000     0.405812   
C8       C      0.981870000000     0.410100000000     0.496710000000     0.405796   
C9       C      0.981650000000     0.913960000000     0.996780000000     0.475351   
C10      C      0.980620000000     0.082820000000     0.996870000000     0.475395   
C11      C      0.981130000000     0.998430000000     0.911880000000     0.462234   
C12      C      0.981150000000     0.998360000000     0.082290000000     0.461805   
C13      C      0.980610000000     0.914070000000     0.497220000000     0.475655   
C14      C      0.981670000000     0.082920000000     0.497130000000     0.475388   
C15      C      0.981140000000     0.998450000000     0.411730000000     0.461772   
C16      C      0.981130000000     0.998520000000     0.582150000000     0.462257   
C17      C      0.481110000000     0.998410000000     0.084710000000     0.410376   
C18      C      0.481170000000     0.998420000000     0.909290000000     0.410313   
C19      C      0.573910000000     0.998240000000     0.997040000000     0.405935   
C20      C      0.388360000000     0.998580000000     0.996990000000     0.405892   
C21      C      0.481170000000     0.998460000000     0.584710000000     0.410197   
C22      C      0.481110000000     0.998460000000     0.409290000000     0.410212   
C23      C      0.573920000000     0.998640000000     0.496960000000     0.405895   
C24      C      0.388370000000     0.998290000000     0.497010000000     0.405861   
C25      C      0.470060000000     0.036940000000     0.698690000000    -0.0862787  
C26      C      0.481200000000     0.998450000000     0.722430000000     0.0348395  
C27      C      0.492340000000     0.959970000000     0.698680000000    -0.0864641  
C28      C      0.491420000000     0.960380000000     0.652670000000     0.0715823  
C29      C      0.470970000000     0.036540000000     0.652680000000     0.0716945  
C30      C      0.481200000000     0.998440000000     0.771570000000     0.0347837  
C31      C      0.492340000000     0.036920000000     0.795330000000    -0.0862437  
C32      C      0.491420000000     0.036510000000     0.841340000000     0.071721   
C33      C      0.470960000000     0.960350000000     0.841320000000     0.071553   
C34      C      0.470050000000     0.959950000000     0.795310000000    -0.0863975  
C35      C      0.492180000000     0.959920000000     0.198680000000    -0.0864296  
C36      C      0.481080000000     0.998430000000     0.222430000000     0.0348012  
C37      C      0.469980000000     0.036920000000     0.198670000000    -0.086282   
C38      C      0.470910000000     0.036510000000     0.152660000000     0.0717727  
C39      C      0.491260000000     0.960330000000     0.152670000000     0.071612   
C40      C      0.481080000000     0.998440000000     0.271570000000     0.034818   
C41      C      0.469970000000     0.959940000000     0.295330000000    -0.0864575  
C42      C      0.470910000000     0.960360000000     0.341340000000     0.0716279  
C43      C      0.491270000000     0.036540000000     0.341330000000     0.0717163  
C44      C      0.492190000000     0.036940000000     0.295310000000    -0.0862749  
C45      C      0.267840000000     0.037980000000     0.496620000000    -0.0862019  
C46      C      0.243010000000     0.998040000000     0.496920000000     0.0345577  
C47      C      0.267980000000     0.958190000000     0.497260000000    -0.0863051  
C48      C      0.316540000000     0.958870000000     0.497400000000     0.0699596  
C49      C      0.316400000000     0.037460000000     0.496560000000     0.0701631  
C50      C      0.191360000000     0.997960000000     0.496900000000     0.0315775  
C51      C      0.166380000000     0.028060000000     0.523210000000    -0.0835311  
C52      C      0.117830000000     0.027350000000     0.522750000000     0.0695014  
C53      C      0.117940000000     0.968340000000     0.470990000000     0.0694742  
C54      C      0.166490000000     0.967770000000     0.470580000000    -0.0837368  
C55      C      0.694450000000     0.958970000000     0.496570000000    -0.0863514  
C56      C      0.719270000000     0.998910000000     0.496860000000     0.0345776  
C57      C      0.694300000000     0.038760000000     0.497190000000    -0.0862132  
C58      C      0.645740000000     0.038070000000     0.497320000000     0.0701238  
C59      C      0.645890000000     0.959480000000     0.496500000000     0.0700131  
C60      C      0.770930000000     0.999010000000     0.496850000000     0.0315965  
C61      C      0.795900000000     0.968930000000     0.523190000000    -0.0836612  
C62      C      0.844450000000     0.969650000000     0.522750000000     0.0693245  
C63      C      0.844340000000     0.028620000000     0.470950000000     0.0696179  
C64      C      0.795790000000     0.029180000000     0.470530000000    -0.0836179  
C65      C      0.166500000000     0.029090000000     0.023460000000    -0.0835716  
C66      C      0.191350000000     0.998920000000     0.997120000000     0.0315347  
C67      C      0.166370000000     0.968840000000     0.970790000000    -0.0836215  
C68      C      0.117820000000     0.969550000000     0.971250000000     0.0693243  
C69      C      0.117940000000     0.028520000000     0.023040000000     0.0696917  
C70      C      0.243000000000     0.998830000000     0.997090000000     0.0345312  
C71      C      0.267980000000     0.038690000000     0.996760000000    -0.0861823  
C72      C      0.316540000000     0.038010000000     0.996620000000     0.0700936  
C73      C      0.316390000000     0.959410000000     0.997440000000     0.069931   
C74      C      0.267830000000     0.958900000000     0.997380000000    -0.0862689  
C75      C      0.795900000000     0.027970000000     0.970860000000    -0.0834503  
C76      C      0.770920000000     0.997880000000     0.997170000000     0.0315247  
C77      C      0.795780000000     0.967700000000     0.023480000000    -0.0836729  
C78      C      0.844330000000     0.968250000000     0.023050000000     0.0695598  
C79      C      0.844450000000     0.027260000000     0.971300000000     0.0694211  
C80      C      0.719270000000     0.997980000000     0.997160000000     0.0345273  
C81      C      0.694450000000     0.037910000000     0.997460000000    -0.0861348  
C82      C      0.645890000000     0.037410000000     0.997520000000     0.0701068  
C83      C      0.645730000000     0.958810000000     0.996680000000     0.0699016  
C84      C      0.694280000000     0.958130000000     0.996820000000    -0.086276   
C85      C      0.022010000000     0.006380000000     0.796570000000    -0.084418   
C86      C      0.981130000000     0.998490000000     0.772110000000     0.0330837  
C87      C      0.940250000000     0.990590000000     0.796560000000    -0.0847842  
C88      C      0.940740000000     0.991370000000     0.843000000000     0.0708579  
C89      C      0.021520000000     0.005570000000     0.843000000000     0.0712367  
C90      C      0.981130000000     0.998510000000     0.721910000000     0.0331443  
C91      C      0.940260000000     0.006410000000     0.697460000000    -0.084646   
C92      C      0.940750000000     0.005620000000     0.651020000000     0.071035   
C93      C      0.021520000000     0.991420000000     0.651020000000     0.0711548  
C94      C      0.022010000000     0.990620000000     0.697460000000    -0.0846425  
C95      C      0.940630000000     0.988890000000     0.197640000000    -0.0850832  
C96      C      0.981150000000     0.998370000000     0.221980000000     0.0332354  
C97      C      0.021670000000     0.007850000000     0.197640000000    -0.0847613  
C98      C      0.021160000000     0.007260000000     0.151190000000     0.0714866  
C99      C      0.941130000000     0.989460000000     0.151190000000     0.0710749  
C100     C      0.981150000000     0.998390000000     0.272040000000     0.0332094  
C101     C      0.940630000000     0.007880000000     0.296380000000    -0.0849169  
C102     C      0.941130000000     0.007320000000     0.342830000000     0.0712572  
C103     C      0.021160000000     0.989520000000     0.342830000000     0.0712812  
C104     C      0.021660000000     0.988920000000     0.296390000000    -0.0848718  
C105     C      0.939450000000     0.701510000000     0.507240000000    -0.084769   
C106     C      0.979730000000     0.725700000000     0.496910000000     0.0332061  
C107     C      0.020150000000     0.701830000000     0.486350000000    -0.0846951  
C108     C      0.019920000000     0.655560000000     0.487100000000     0.0702111  
C109     C      0.940110000000     0.655200000000     0.506410000000     0.0699142  
C110     C      0.979710000000     0.775290000000     0.497260000000     0.0356268  
C111     C      0.939250000000     0.799500000000     0.487560000000    -0.0876768  
C112     C      0.939940000000     0.845820000000     0.488400000000     0.0738458  
C113     C      0.020060000000     0.845390000000     0.506560000000     0.0744942  
C114     C      0.020300000000     0.799130000000     0.507270000000    -0.0877976  
C115     C      0.941990000000     0.197870000000     0.507050000000    -0.0879443  
C116     C      0.982580000000     0.221700000000     0.497040000000     0.0356082  
C117     C      0.023040000000     0.197480000000     0.487360000000    -0.0874432  
C118     C      0.022350000000     0.151160000000     0.488240000000     0.0740147  
C119     C      0.942220000000     0.151610000000     0.506380000000     0.0742919  
C120     C      0.982570000000     0.271300000000     0.496670000000     0.0332546  
C121     C      0.942160000000     0.295170000000     0.486090000000    -0.0849278  
C122     C      0.942400000000     0.341440000000     0.486860000000     0.0700483  
C123     C      0.022200000000     0.341780000000     0.506190000000     0.070126   
C124     C      0.022860000000     0.295470000000     0.507000000000    -0.0846152  
C125     C      0.021360000000     0.487250000000     0.795150000000    -0.0860998  
C126     C      0.981110000000     0.498240000000     0.771420000000     0.0347879  
C127     C      0.940840000000     0.509230000000     0.795140000000    -0.0863194  
C128     C      0.941280000000     0.508450000000     0.841160000000     0.0714887  
C129     C      0.020920000000     0.488050000000     0.841170000000     0.0716705  
C130     C      0.981120000000     0.498270000000     0.722300000000     0.0348056  
C131     C      0.021380000000     0.509290000000     0.698590000000    -0.0861089  
C132     C      0.020950000000     0.508540000000     0.652570000000     0.0717061  
C133     C      0.941320000000     0.488120000000     0.652540000000     0.0714724  
C134     C      0.940870000000     0.487280000000     0.698560000000    -0.0863361  
C135     C      0.940850000000     0.487730000000     0.198580000000    -0.086281   
C136     C      0.981150000000     0.498620000000     0.222290000000     0.0348201  
C137     C      0.021440000000     0.509470000000     0.198540000000    -0.0861583  
C138     C      0.020990000000     0.508610000000     0.152530000000     0.0717624  
C139     C      0.941270000000     0.488510000000     0.152560000000     0.0714917  
C140     C      0.981160000000     0.498640000000     0.271420000000     0.0347896  
C141     C      0.940870000000     0.509500000000     0.295160000000    -0.0862901  
C142     C      0.941300000000     0.508660000000     0.341180000000     0.0714817  
C143     C      0.021030000000     0.488600000000     0.341160000000     0.0717215  
C144     C      0.021460000000     0.487790000000     0.295150000000    -0.0860864  
C145     C      0.942090000000     0.701710000000     0.007460000000    -0.084817   
C146     C      0.982510000000     0.725590000000     0.996910000000     0.0331624  
C147     C      0.022790000000     0.701430000000     0.986550000000    -0.0845835  
C148     C      0.022130000000     0.655110000000     0.987340000000     0.0700778  
C149     C      0.942320000000     0.655430000000     0.006670000000     0.0700238  
C150     C      0.982520000000     0.775190000000     0.996620000000     0.035601   
C151     C      0.941940000000     0.799030000000     0.986650000000    -0.0879735  
C152     C      0.942180000000     0.845290000000     0.987410000000     0.0742244  
C153     C      0.022310000000     0.845700000000     0.005550000000     0.0740774  
C154     C      0.022990000000     0.799380000000     0.006340000000    -0.0874335  
C155     C      0.939270000000     0.197380000000     0.006560000000    -0.0876149  
C156     C      0.979730000000     0.221590000000     0.996850000000     0.035583   
C157     C      0.020310000000     0.197760000000     0.986850000000    -0.0877598  
C158     C      0.020080000000     0.151500000000     0.987570000000     0.0744918  
C159     C      0.939960000000     0.151060000000     0.005720000000     0.0739077  
C160     C      0.979730000000     0.271190000000     0.997160000000     0.0331917  
C161     C      0.939440000000     0.295340000000     0.986810000000    -0.0848369  
C162     C      0.940100000000     0.341660000000     0.987580000000     0.0699639  
C163     C      0.019900000000     0.341350000000     0.006900000000     0.070265   
C164     C      0.020150000000     0.295080000000     0.007700000000    -0.0846582  
Cu1      Cu     0.023990000000     0.498130000000     0.996860000000     0.851669   
Cu2      Cu     0.938240000000     0.498650000000     0.996870000000     0.851193   
Cu3      Cu     0.024030000000     0.498770000000     0.496850000000     0.851755   
Cu4      Cu     0.938280000000     0.498220000000     0.496850000000     0.851124   
Cu5      Cu     0.932580000000     0.997640000000     0.997120000000     1.1792     
Cu6      Cu     0.029690000000     0.999140000000     0.997120000000     1.17933    
Cu7      Cu     0.932590000000     0.999250000000     0.496900000000     1.17938    
Cu8      Cu     0.029700000000     0.997740000000     0.496900000000     1.17949    
Cu9      Cu     0.481050000000     0.957500000000     0.997000000000     0.85212    
Cu10     Cu     0.481220000000     0.039330000000     0.997000000000     0.852308   
Cu11     Cu     0.481220000000     0.957550000000     0.497000000000     0.852003   
Cu12     Cu     0.481070000000     0.039380000000     0.497000000000     0.852368   
H1       H      0.502370000000     0.929650000000     0.715250000000     0.0507332  
H2       H      0.500240000000     0.929880000000     0.635640000000     0.0257331  
H3       H      0.462140000000     0.067050000000     0.635660000000     0.0257351  
H4       H      0.460030000000     0.067260000000     0.715280000000     0.0507089  
H5       H      0.502380000000     0.067250000000     0.778750000000     0.0506877  
H6       H      0.500250000000     0.067010000000     0.858360000000     0.0257112  
H7       H      0.462130000000     0.929840000000     0.858340000000     0.0257344  
H8       H      0.460020000000     0.929630000000     0.778720000000     0.050703   
H9       H      0.459970000000     0.067250000000     0.215250000000     0.0507085  
H10      H      0.462120000000     0.067020000000     0.135640000000     0.0257085  
H11      H      0.500050000000     0.929810000000     0.135660000000     0.0257126  
H12      H      0.502180000000     0.929600000000     0.215270000000     0.0507206  
H13      H      0.459970000000     0.929610000000     0.278760000000     0.05073    
H14      H      0.462120000000     0.929850000000     0.358370000000     0.0257134  
H15      H      0.500070000000     0.067060000000     0.358340000000     0.0257093  
H16      H      0.502190000000     0.067270000000     0.278730000000     0.0507101  
H17      H      0.250160000000     0.926560000000     0.498030000000     0.0508947  
H18      H      0.334410000000     0.927220000000     0.497830000000     0.0262519  
H19      H      0.334150000000     0.069170000000     0.496150000000     0.0262386  
H20      H      0.249900000000     0.069540000000     0.495830000000     0.0509403  
H21      H      0.184150000000     0.051510000000     0.544400000000     0.0499095  
H22      H      0.098600000000     0.050340000000     0.543210000000     0.0151523  
H23      H      0.098800000000     0.945230000000     0.450580000000     0.0157673  
H24      H      0.184360000000     0.944350000000     0.449430000000     0.0497924  
H25      H      0.712110000000     0.070390000000     0.497940000000     0.0509104  
H26      H      0.627860000000     0.069710000000     0.497740000000     0.0262378  
H27      H      0.628140000000     0.927760000000     0.496110000000     0.0262488  
H28      H      0.712390000000     0.927410000000     0.495790000000     0.0509339  
H29      H      0.778130000000     0.945480000000     0.544390000000     0.0498741  
H30      H      0.863670000000     0.946670000000     0.543230000000     0.0151373  
H31      H      0.863490000000     0.051720000000     0.450540000000     0.015752   
H32      H      0.777930000000     0.052590000000     0.449350000000     0.0497796  
H33      H      0.184140000000     0.945390000000     0.949580000000     0.0498562  
H34      H      0.098590000000     0.946560000000     0.950770000000     0.015155   
H35      H      0.098810000000     0.051620000000     0.043470000000     0.0157656  
H36      H      0.184370000000     0.052500000000     0.044620000000     0.0498187  
H37      H      0.250160000000     0.070310000000     0.996010000000     0.050899   
H38      H      0.334420000000     0.069650000000     0.996200000000     0.0262415  
H39      H      0.334140000000     0.927710000000     0.997840000000     0.0262563  
H40      H      0.249890000000     0.927330000000     0.998160000000     0.0508997  
H41      H      0.777910000000     0.944270000000     0.044640000000     0.0497659  
H42      H      0.863470000000     0.945140000000     0.043460000000     0.015745   
H43      H      0.863680000000     0.050250000000     0.950830000000     0.0151604  
H44      H      0.778130000000     0.051440000000     0.949670000000     0.0498485  
H45      H      0.712400000000     0.069480000000     0.998260000000     0.0508852  
H46      H      0.628150000000     0.069120000000     0.997920000000     0.0262396  
H47      H      0.627850000000     0.927170000000     0.996250000000     0.0262538  
H48      H      0.712100000000     0.926500000000     0.996050000000     0.0508634  
H49      H      0.907700000000     0.983130000000     0.780320000000     0.0500011  
H50      H      0.908180000000     0.985160000000     0.859990000000     0.0257954  
H51      H      0.054080000000     0.011770000000     0.859990000000     0.0258272  
H52      H      0.054560000000     0.013860000000     0.780330000000     0.0500568  
H53      H      0.907710000000     0.013880000000     0.713700000000     0.0500643  
H54      H      0.908190000000     0.011830000000     0.634030000000     0.0258286  
H55      H      0.054080000000     0.985220000000     0.634030000000     0.0257527  
H56      H      0.054560000000     0.983150000000     0.713690000000     0.0500195  
H57      H      0.053830000000     0.016400000000     0.214090000000     0.0503247  
H58      H      0.053410000000     0.014830000000     0.134220000000     0.0252631  
H59      H      0.908880000000     0.981890000000     0.134230000000     0.0252552  
H60      H      0.908470000000     0.980340000000     0.214100000000     0.0502487  
H61      H      0.908470000000     0.016430000000     0.279920000000     0.0502993  
H62      H      0.908880000000     0.014900000000     0.359790000000     0.025265   
H63      H      0.053410000000     0.981960000000     0.359800000000     0.0252501  
H64      H      0.053820000000     0.980360000000     0.279930000000     0.0502398  
H65      H      0.051940000000     0.718530000000     0.476930000000     0.0502107  
H66      H      0.052030000000     0.638670000000     0.478770000000     0.0261966  
H67      H      0.908160000000     0.638010000000     0.514670000000     0.0262084  
H68      H      0.907510000000     0.717980000000     0.516620000000     0.0501605  
H69      H      0.907160000000     0.783040000000     0.478660000000     0.0507959  
H70      H      0.907870000000     0.863070000000     0.480670000000     0.0245753  
H71      H      0.052340000000     0.862250000000     0.514380000000     0.0251762  
H72      H      0.052230000000     0.782430000000     0.516200000000     0.0509125  
H73      H      0.055130000000     0.213930000000     0.478450000000     0.0508039  
H74      H      0.054420000000     0.133900000000     0.480540000000     0.0245993  
H75      H      0.909940000000     0.134760000000     0.514220000000     0.0251963  
H76      H      0.910050000000     0.214580000000     0.515970000000     0.0508857  
H77      H      0.910360000000     0.278480000000     0.476670000000     0.0502133  
H78      H      0.910290000000     0.358340000000     0.478530000000     0.0261955  
H79      H      0.054150000000     0.358970000000     0.514470000000     0.0262096  
H80      H      0.054790000000     0.279000000000     0.516390000000     0.0501906  
H81      H      0.909150000000     0.519010000000     0.778490000000     0.050889   
H82      H      0.909370000000     0.517180000000     0.858160000000     0.0260102  
H83      H      0.052820000000     0.479330000000     0.858170000000     0.025998   
H84      H      0.053060000000     0.477470000000     0.778510000000     0.0508828  
H85      H      0.053080000000     0.519070000000     0.715240000000     0.0508774  
H86      H      0.052860000000     0.517300000000     0.635580000000     0.0259986  
H87      H      0.909410000000     0.479400000000     0.635520000000     0.0260231  
H88      H      0.909170000000     0.477480000000     0.715180000000     0.0508953  
H89      H      0.053170000000     0.519200000000     0.215150000000     0.0508817  
H90      H      0.052930000000     0.517220000000     0.135500000000     0.0259735  
H91      H      0.909330000000     0.479870000000     0.135570000000     0.0259896  
H92      H      0.909110000000     0.478030000000     0.215210000000     0.0508443  
H93      H      0.909130000000     0.519200000000     0.278550000000     0.0508571  
H94      H      0.909370000000     0.517270000000     0.358190000000     0.0259849  
H95      H      0.052970000000     0.479980000000     0.358170000000     0.0259734  
H96      H      0.053200000000     0.478090000000     0.278520000000     0.0508454  
H97      H      0.054720000000     0.717910000000     0.977180000000     0.0501682  
H98      H      0.054080000000     0.637930000000     0.979060000000     0.0262006  
H99      H      0.910220000000     0.638530000000     0.014990000000     0.0262184  
H100     H      0.910300000000     0.718390000000     0.016900000000     0.0502152  
H101     H      0.910000000000     0.782340000000     0.977700000000     0.050878   
H102     H      0.909910000000     0.862160000000     0.979610000000     0.0251918  
H103     H      0.054380000000     0.862950000000     0.013280000000     0.0245867  
H104     H      0.055080000000     0.782920000000     0.015210000000     0.0508208  
H105     H      0.052250000000     0.214470000000     0.977920000000     0.050877   
H106     H      0.052360000000     0.134640000000     0.979740000000     0.0251914  
H107     H      0.907880000000     0.133800000000     0.013440000000     0.0246187  
H108     H      0.907180000000     0.213840000000     0.015450000000     0.0508149  
H109     H      0.907510000000     0.278860000000     0.977440000000     0.0501825  
H110     H      0.908140000000     0.358830000000     0.979290000000     0.0261926  
H111     H      0.052010000000     0.358270000000     0.015200000000     0.0262099  
H112     H      0.051940000000     0.278400000000     0.017140000000     0.050231   
N1       N      0.481190000000     0.998460000000     0.629890000000    -0.194703   
N2       N      0.481180000000     0.998430000000     0.864110000000    -0.194738   
N3       N      0.481090000000     0.998420000000     0.129890000000    -0.194764   
N4       N      0.481100000000     0.998450000000     0.364110000000    -0.194734   
N5       N      0.340620000000     0.998210000000     0.496990000000    -0.192677   
N6       N      0.094660000000     0.997840000000     0.496840000000    -0.25931    
N7       N      0.621660000000     0.998730000000     0.496930000000    -0.192728   
N8       N      0.867630000000     0.999150000000     0.496830000000    -0.259281   
N9       N      0.094650000000     0.999040000000     0.997180000000    -0.259332   
N10      N      0.340620000000     0.998670000000     0.997010000000    -0.192697   
N11      N      0.867620000000     0.997740000000     0.997200000000    -0.259299   
N12      N      0.621650000000     0.998160000000     0.997080000000    -0.192693   
N13      N      0.981130000000     0.998460000000     0.866210000000    -0.20192    
N14      N      0.981140000000     0.998520000000     0.627820000000    -0.201976   
N15      N      0.981150000000     0.998360000000     0.127980000000    -0.20181    
N16      N      0.981140000000     0.998430000000     0.366040000000    -0.2018     
N17      N      0.980140000000     0.632380000000     0.496800000000    -0.192745   
N18      N      0.980150000000     0.868600000000     0.497410000000    -0.206727   
N19      N      0.982130000000     0.128400000000     0.497270000000    -0.20662    
N20      N      0.982170000000     0.364610000000     0.496590000000    -0.192757   
N21      N      0.981100000000     0.498270000000     0.863960000000    -0.194584   
N22      N      0.981140000000     0.498360000000     0.629760000000    -0.19454    
N23      N      0.981130000000     0.498530000000     0.129750000000    -0.194667   
N24      N      0.981170000000     0.498620000000     0.363960000000    -0.194614   
N25      N      0.982100000000     0.632270000000     0.996940000000    -0.192801   
N26      N      0.982100000000     0.868490000000     0.996570000000    -0.206692   
N27      N      0.980170000000     0.128290000000     0.996710000000    -0.206716   
N28      N      0.980120000000     0.364500000000     0.997150000000    -0.192795   
O1       O      0.019790000000     0.500890000000     0.063510000000    -0.401481   
O2       O      0.019740000000     0.495430000000     0.930200000000    -0.401436   
O3       O      0.020300000000     0.565330000000     0.994170000000    -0.397822   
O4       O      0.019210000000     0.430990000000     0.999580000000    -0.397947   
O5       O      0.941920000000     0.431440000000     0.994310000000    -0.397887   
O6       O      0.943010000000     0.565790000000     0.999470000000    -0.398018   
O7       O      0.942470000000     0.501210000000     0.930200000000    -0.401598   
O8       O      0.942450000000     0.496020000000     0.063530000000    -0.401613   
O9       O      0.019780000000     0.501330000000     0.563520000000    -0.401433   
O10      O      0.019830000000     0.496140000000     0.430200000000    -0.401638   
O11      O      0.019240000000     0.565910000000     0.494260000000    -0.397944   
O12      O      0.020360000000     0.431560000000     0.499420000000    -0.397816   
O13      O      0.943070000000     0.431080000000     0.494130000000    -0.39804    
O14      O      0.941950000000     0.565430000000     0.499540000000    -0.397928   
O15      O      0.942490000000     0.500990000000     0.430190000000    -0.401586   
O16      O      0.942510000000     0.495520000000     0.563510000000    -0.401609   
O17      O      0.943200000000     0.934630000000     0.994390000000    -0.479216   
O18      O      0.942670000000     0.061240000000     0.999470000000    -0.479706   
O19      O      0.942820000000     0.997840000000     0.933160000000    -0.466549   
O20      O      0.943080000000     0.994300000000     0.060990000000    -0.466894   
O21      O      0.019210000000     0.002430000000     0.060990000000    -0.466637   
O22      O      0.019440000000     0.999010000000     0.933160000000    -0.466376   
O23      O      0.019070000000     0.062160000000     0.994450000000    -0.47894    
O24      O      0.019600000000     0.935540000000     0.999400000000    -0.479631   
O25      O      0.942670000000     0.935650000000     0.494610000000    -0.479919   
O26      O      0.943220000000     0.062260000000     0.499550000000    -0.479245   
O27      O      0.943080000000     0.002530000000     0.433030000000    -0.466823   
O28      O      0.942830000000     0.999100000000     0.560860000000    -0.466608   
O29      O      0.019440000000     0.997930000000     0.560860000000    -0.466345   
O30      O      0.019210000000     0.994390000000     0.433030000000    -0.466762   
O31      O      0.019620000000     0.061340000000     0.494550000000    -0.479532   
O32      O      0.019060000000     0.934730000000     0.499620000000    -0.479177   
O33      O      0.482660000000     0.961490000000     0.063680000000    -0.402068   
O34      O      0.479470000000     0.961500000000     0.930320000000    -0.402061   
O35      O      0.551560000000     0.961370000000     0.995900000000    -0.398409   
O36      O      0.410570000000     0.961630000000     0.998110000000    -0.398434   
O37      O      0.410710000000     0.035460000000     0.995870000000    -0.398209   
O38      O      0.551710000000     0.035200000000     0.998150000000    -0.398254   
O39      O      0.482850000000     0.035340000000     0.930330000000    -0.401981   
O40      O      0.479560000000     0.035340000000     0.063680000000    -0.401889   
O41      O      0.482850000000     0.961540000000     0.563680000000    -0.402011   
O42      O      0.479570000000     0.961530000000     0.430320000000    -0.40199    
O43      O      0.551710000000     0.961680000000     0.495860000000    -0.398318   
O44      O      0.410710000000     0.961420000000     0.498140000000    -0.398367   
O45      O      0.410580000000     0.035250000000     0.495890000000    -0.398228   
O46      O      0.551570000000     0.035510000000     0.498100000000    -0.398316   
O47      O      0.482670000000     0.035390000000     0.430320000000    -0.401912   
O48      O      0.479480000000     0.035390000000     0.563680000000    -0.401868   


