data_structure

_audit_creation_method RASPA-1.0
_audit_creation_date 2023-5-19
_audit_author_name 'Poobodin Mano'

_cell_length_a    30.2887
_cell_length_b    30.2952
_cell_length_c    30.2888
_cell_angle_alpha 89.9998
_cell_angle_beta  89.9998
_cell_angle_gamma 89.9998
_cell_volume      27793.1

_symmetry_cell_setting          triclinic
_symmetry_space_group_name_Hall 'P 1'
_symmetry_space_group_name_H-M  'P 1'
_symmetry_Int_Tables_number     1

_symmetry_equiv_pos_as_xyz 'x,y,z'

loop_
_atom_site_label
_atom_site_type_symbol
_atom_site_fract_x
_atom_site_fract_y
_atom_site_fract_z
_atom_site_charge
C1       C      0.996350000000     0.083900000000     0.496370000000     0.405821   
C2       C      0.996360000000     0.907780000000     0.496360000000     0.405685   
C3       C      0.084410000000     0.995910000000     0.494340000000     0.405647   
C4       C      0.908300000000     0.995900000000     0.498390000000     0.405649   
C5       C      0.998390000000     0.495900000000     0.408310000000     0.40557    
C6       C      0.994330000000     0.495910000000     0.584420000000     0.405571   
C7       C      0.996360000000     0.407790000000     0.496370000000     0.405645   
C8       C      0.996370000000     0.583900000000     0.496360000000     0.405768   
C9       C      0.493500000000     0.996780000000     0.584390000000     0.405614   
C10      C      0.499200000000     0.996780000000     0.408360000000     0.405629   
C11      C      0.584370000000     0.996780000000     0.499220000000     0.405617   
C12      C      0.408340000000     0.996790000000     0.493520000000     0.405566   
C13      C      0.498390000000     0.995900000000     0.084430000000     0.405638   
C14      C      0.494340000000     0.995900000000     0.908320000000     0.405674   
C15      C      0.496360000000     0.083900000000     0.996370000000     0.405778   
C16      C      0.496360000000     0.907780000000     0.996370000000     0.405681   
C17      C      0.999230000000     0.496800000000     0.084380000000     0.405477   
C18      C      0.993510000000     0.496800000000     0.908350000000     0.40559    
C19      C      0.084390000000     0.496790000000     0.993510000000     0.405638   
C20      C      0.908350000000     0.496800000000     0.999220000000     0.40547    
C21      C      0.496370000000     0.407780000000     0.996370000000     0.405601   
C22      C      0.496370000000     0.583900000000     0.996370000000     0.405751   
C23      C      0.408320000000     0.495900000000     0.994340000000     0.405594   
C24      C      0.584430000000     0.495900000000     0.998400000000     0.405496   
C25      C      0.794190000000     0.457890000000     0.009660000000    -0.0866936  
C26      C      0.770710000000     0.496720000000     0.001590000000     0.0343248  
C27      C      0.793910000000     0.535660000000     0.993230000000    -0.0868865  
C28      C      0.840010000000     0.535260000000     0.993320000000     0.0700165  
C29      C      0.840300000000     0.458410000000     0.008450000000     0.0700245  
C30      C      0.722070000000     0.496480000000     0.000950000000     0.0344362  
C31      C      0.699380000000     0.503700000000     0.961500000000    -0.0870212  
C32      C      0.653310000000     0.502860000000     0.961160000000     0.070168   
C33      C      0.651960000000     0.489460000000     0.038340000000     0.0701045  
C34      C      0.698090000000     0.489020000000     0.039620000000    -0.086721   
C35      C      0.198550000000     0.457880000000     0.983070000000    -0.0867806  
C36      C      0.222030000000     0.496720000000     0.991150000000     0.0343499  
C37      C      0.198830000000     0.535650000000     0.999510000000    -0.0868951  
C38      C      0.152730000000     0.535260000000     0.999420000000     0.0699524  
C39      C      0.152450000000     0.458400000000     0.984280000000     0.0700295  
C40      C      0.270670000000     0.496460000000     0.991780000000     0.034112   
C41      C      0.293360000000     0.503690000000     0.031240000000    -0.0866864  
C42      C      0.339430000000     0.502860000000     0.031580000000     0.0701185  
C43      C      0.340780000000     0.489450000000     0.954400000000     0.0699598  
C44      C      0.294660000000     0.489010000000     0.953110000000    -0.0865964  
C45      C      0.490130000000     0.698210000000     0.035630000000    -0.086688   
C46      C      0.496360000000     0.721530000000     0.996370000000     0.0342152  
C47      C      0.502600000000     0.698210000000     0.957110000000    -0.0867668  
C48      C      0.501990000000     0.652110000000     0.957600000000     0.0700449  
C49      C      0.490740000000     0.652110000000     0.035140000000     0.0701165  
C50      C      0.496360000000     0.770150000000     0.996370000000     0.0341862  
C51      C      0.457450000000     0.793470000000     0.004480000000    -0.0866624  
C52      C      0.457910000000     0.839570000000     0.003860000000     0.0700868  
C53      C      0.534810000000     0.839570000000     0.988880000000     0.0700085  
C54      C      0.535280000000     0.793470000000     0.988260000000    -0.0867461  
C55      C      0.535630000000     0.198210000000     0.990140000000    -0.086806   
C56      C      0.496370000000     0.221530000000     0.996370000000     0.0342254  
C57      C      0.457110000000     0.198210000000     0.002600000000    -0.0866886  
C58      C      0.457600000000     0.152110000000     0.002000000000     0.0701256  
C59      C      0.535130000000     0.152110000000     0.990740000000     0.070109   
C60      C      0.496370000000     0.270150000000     0.996370000000     0.0342003  
C61      C      0.504490000000     0.293470000000     0.957450000000    -0.0867951  
C62      C      0.503860000000     0.339570000000     0.957920000000     0.0700251  
C63      C      0.488890000000     0.339570000000     0.034820000000     0.0701137  
C64      C      0.488260000000     0.293470000000     0.035290000000    -0.0867154  
C65      C      0.499510000000     0.035640000000     0.698830000000    -0.0867632  
C66      C      0.491150000000     0.996710000000     0.722030000000     0.0342439  
C67      C      0.483080000000     0.957880000000     0.698560000000    -0.0866926  
C68      C      0.484280000000     0.958390000000     0.652450000000     0.0699634  
C69      C      0.499420000000     0.035240000000     0.652730000000     0.0701198  
C70      C      0.491790000000     0.996460000000     0.770670000000     0.0342105  
C71      C      0.531240000000     0.003680000000     0.793360000000    -0.0867647  
C72      C      0.531580000000     0.002860000000     0.839440000000     0.0701272  
C73      C      0.454400000000     0.989450000000     0.840780000000     0.0700042  
C74      C      0.453110000000     0.989010000000     0.794660000000    -0.0866787  
C75      C      0.539610000000     0.989010000000     0.198090000000    -0.0866075  
C76      C      0.500940000000     0.996460000000     0.222070000000     0.0342361  
C77      C      0.461480000000     0.003690000000     0.199380000000    -0.0868285  
C78      C      0.461150000000     0.002860000000     0.153310000000     0.0702356  
C79      C      0.538330000000     0.989450000000     0.151960000000     0.0699298  
C80      C      0.501570000000     0.996710000000     0.270710000000     0.034203   
C81      C      0.509640000000     0.957870000000     0.294190000000    -0.0867135  
C82      C      0.508430000000     0.958390000000     0.340300000000     0.0699877  
C83      C      0.493300000000     0.035250000000     0.340010000000     0.070054   
C84      C      0.493210000000     0.035650000000     0.293910000000    -0.086716   
C85      C      0.031230000000     0.503700000000     0.699370000000    -0.0867263  
C86      C      0.991780000000     0.496480000000     0.722060000000     0.0341571  
C87      C      0.953110000000     0.489020000000     0.698080000000    -0.0866073  
C88      C      0.954390000000     0.489470000000     0.651950000000     0.0699771  
C89      C      0.031570000000     0.502870000000     0.653300000000     0.0701588  
C90      C      0.991140000000     0.496730000000     0.770700000000     0.0343214  
C91      C      0.999500000000     0.535660000000     0.793900000000    -0.0869341  
C92      C      0.999420000000     0.535260000000     0.840000000000     0.0700022  
C93      C      0.984280000000     0.458410000000     0.840290000000     0.069974   
C94      C      0.983080000000     0.457890000000     0.794180000000    -0.0867031  
C95      C      0.993230000000     0.535650000000     0.198830000000    -0.0868705  
C96      C      0.001580000000     0.496710000000     0.222030000000     0.0343416  
C97      C      0.009650000000     0.457880000000     0.198550000000    -0.0867072  
C98      C      0.008450000000     0.458400000000     0.152440000000     0.0700152  
C99      C      0.993320000000     0.535250000000     0.152720000000     0.0699902  
C100     C      0.000950000000     0.496460000000     0.270660000000     0.0344     
C101     C      0.961490000000     0.503690000000     0.293350000000    -0.0869902  
C102     C      0.961150000000     0.502860000000     0.339430000000     0.0701307  
C103     C      0.038330000000     0.489450000000     0.340780000000     0.0701073  
C104     C      0.039610000000     0.489000000000     0.294650000000    -0.0866854  
C105     C      0.199360000000     0.003690000000     0.531250000000    -0.0867671  
C106     C      0.222050000000     0.996470000000     0.491790000000     0.0342204  
C107     C      0.198070000000     0.989020000000     0.453120000000    -0.0866289  
C108     C      0.151940000000     0.989470000000     0.454400000000     0.0699963  
C109     C      0.153290000000     0.002870000000     0.531580000000     0.0701589  
C110     C      0.270690000000     0.996720000000     0.491160000000     0.0342156  
C111     C      0.293890000000     0.035650000000     0.499520000000    -0.0867018  
C112     C      0.340000000000     0.035250000000     0.499430000000     0.0700815  
C113     C      0.340280000000     0.958400000000     0.484290000000     0.0699956  
C114     C      0.294170000000     0.957880000000     0.483090000000    -0.0867155  
C115     C      0.793350000000     0.003680000000     0.461490000000    -0.0867551  
C116     C      0.770650000000     0.996450000000     0.500940000000     0.0341903  
C117     C      0.794640000000     0.988990000000     0.539610000000    -0.0866324  
C118     C      0.840760000000     0.989440000000     0.538330000000     0.0699807  
C119     C      0.839420000000     0.002850000000     0.461150000000     0.0701473  
C120     C      0.722010000000     0.996700000000     0.501580000000     0.0342629  
C121     C      0.698820000000     0.035640000000     0.493220000000    -0.0867649  
C122     C      0.652710000000     0.035240000000     0.493310000000     0.0700944  
C123     C      0.652430000000     0.958390000000     0.508450000000     0.0699848  
C124     C      0.698540000000     0.957870000000     0.509650000000    -0.0867341  
C125     C      0.035630000000     0.698210000000     0.502580000000    -0.0866651  
C126     C      0.996370000000     0.721540000000     0.496360000000     0.0341759  
C127     C      0.957110000000     0.698210000000     0.490130000000    -0.08674    
C128     C      0.957600000000     0.652120000000     0.490730000000     0.0700316  
C129     C      0.035140000000     0.652110000000     0.501980000000     0.070113   
C130     C      0.996370000000     0.770150000000     0.496360000000     0.0341901  
C131     C      0.004470000000     0.793470000000     0.535270000000    -0.0866741  
C132     C      0.003850000000     0.839570000000     0.534810000000     0.0700909  
C133     C      0.988880000000     0.839570000000     0.457910000000     0.0700448  
C134     C      0.988260000000     0.793480000000     0.457440000000    -0.0867569  
C135     C      0.035260000000     0.293470000000     0.504490000000    -0.0866697  
C136     C      0.996350000000     0.270150000000     0.496370000000     0.0342033  
C137     C      0.957430000000     0.293480000000     0.488260000000    -0.0867846  
C138     C      0.957900000000     0.339580000000     0.488880000000     0.0700458  
C139     C      0.034800000000     0.339570000000     0.503860000000     0.0700687  
C140     C      0.996340000000     0.221540000000     0.496370000000     0.034159   
C141     C      0.002570000000     0.198210000000     0.535630000000    -0.0866387  
C142     C      0.001970000000     0.152110000000     0.535140000000     0.07011    
C143     C      0.990720000000     0.152110000000     0.457600000000     0.0700341  
C144     C      0.990110000000     0.198210000000     0.457110000000    -0.0867139  
Cu1      Cu     0.997420000000     0.995840000000     0.537070000000     0.846307   
Cu2      Cu     0.995290000000     0.995840000000     0.455660000000     0.846332   
Cu3      Cu     0.037070000000     0.495840000000     0.497430000000     0.846573   
Cu4      Cu     0.955650000000     0.495850000000     0.495300000000     0.846393   
Cu5      Cu     0.496350000000     0.956070000000     0.496370000000     0.845242   
Cu6      Cu     0.496350000000     0.037460000000     0.496370000000     0.847176   
Cu7      Cu     0.537070000000     0.995840000000     0.995300000000     0.846389   
Cu8      Cu     0.455660000000     0.995840000000     0.997440000000     0.846323   
Cu9      Cu     0.996370000000     0.456090000000     0.996360000000     0.844846   
Cu10     Cu     0.996370000000     0.537470000000     0.996360000000     0.84693    
Cu11     Cu     0.495300000000     0.495840000000     0.037080000000     0.846654   
Cu12     Cu     0.497440000000     0.495840000000     0.955660000000     0.846395   
H1       H      0.776490000000     0.566250000000     0.986880000000     0.0526795  
H2       H      0.856830000000     0.566170000000     0.986750000000     0.0264319  
H3       H      0.857370000000     0.427530000000     0.014470000000     0.0264217  
H4       H      0.776990000000     0.427200000000     0.016120000000     0.0526895  
H5       H      0.717180000000     0.509480000000     0.931010000000     0.0527474  
H6       H      0.636930000000     0.508400000000     0.929820000000     0.0263465  
H7       H      0.634450000000     0.483800000000     0.069040000000     0.0263547  
H8       H      0.714890000000     0.483370000000     0.070690000000     0.0526594  
H9       H      0.216250000000     0.566240000000     0.005860000000     0.0527748  
H10      H      0.135920000000     0.566160000000     0.005980000000     0.0265364  
H11      H      0.135370000000     0.427530000000     0.978260000000     0.0264103  
H12      H      0.215750000000     0.427200000000     0.976610000000     0.0527084  
H13      H      0.275550000000     0.509480000000     0.061730000000     0.0526945  
H14      H      0.355810000000     0.508390000000     0.062920000000     0.0263786  
H15      H      0.358290000000     0.483790000000     0.923700000000     0.0263843  
H16      H      0.277850000000     0.483360000000     0.922040000000     0.0526131  
H17      H      0.507450000000     0.715520000000     0.926180000000     0.0527118  
H18      H      0.506720000000     0.635170000000     0.926430000000     0.0263287  
H19      H      0.486010000000     0.635170000000     0.066310000000     0.0263269  
H20      H      0.485280000000     0.715520000000     0.066560000000     0.0527168  
H21      H      0.426790000000     0.776160000000     0.010820000000     0.0527218  
H22      H      0.427000000000     0.856510000000     0.010080000000     0.0264354  
H23      H      0.565730000000     0.856510000000     0.982660000000     0.0264101  
H24      H      0.565940000000     0.776160000000     0.981920000000     0.0527007  
H25      H      0.426180000000     0.215520000000     0.007450000000     0.0527331  
H26      H      0.426430000000     0.135170000000     0.006730000000     0.0263546  
H27      H      0.566310000000     0.135170000000     0.986020000000     0.02631    
H28      H      0.566560000000     0.215520000000     0.985290000000     0.0527169  
H29      H      0.510820000000     0.276160000000     0.926800000000     0.052743   
H30      H      0.510080000000     0.356510000000     0.927010000000     0.0264136  
H31      H      0.482660000000     0.356510000000     0.065730000000     0.0264118  
H32      H      0.481920000000     0.276160000000     0.065940000000     0.0527458  
H33      H      0.476620000000     0.927190000000     0.715760000000     0.0526691  
H34      H      0.478260000000     0.927520000000     0.635380000000     0.0264095  
H35      H      0.505980000000     0.066150000000     0.635920000000     0.0264271  
H36      H      0.505860000000     0.066230000000     0.716250000000     0.0526853  
H37      H      0.561730000000     0.009470000000     0.775560000000     0.0527134  
H38      H      0.562920000000     0.008390000000     0.855820000000     0.0263805  
H39      H      0.423690000000     0.983790000000     0.858290000000     0.0263665  
H40      H      0.422050000000     0.983360000000     0.777850000000     0.0526396  
H41      H      0.430990000000     0.009470000000     0.217180000000     0.0527452  
H42      H      0.429810000000     0.008400000000     0.136930000000     0.0263723  
H43      H      0.569030000000     0.983790000000     0.134460000000     0.0263895  
H44      H      0.570680000000     0.983360000000     0.214900000000     0.0526134  
H45      H      0.516090000000     0.927190000000     0.276990000000     0.0526996  
H46      H      0.514450000000     0.927520000000     0.357370000000     0.0264049  
H47      H      0.486740000000     0.066150000000     0.356830000000     0.0264537  
H48      H      0.486870000000     0.066240000000     0.276490000000     0.0526854  
H49      H      0.922040000000     0.483370000000     0.714890000000     0.0526079  
H50      H      0.923690000000     0.483800000000     0.634450000000     0.0263701  
H51      H      0.062910000000     0.508410000000     0.636920000000     0.0263671  
H52      H      0.061720000000     0.509490000000     0.717180000000     0.052701   
H53      H      0.005860000000     0.566250000000     0.776490000000     0.0527792  
H54      H      0.005990000000     0.566170000000     0.856820000000     0.0265151  
H55      H      0.978260000000     0.427530000000     0.857360000000     0.0263979  
H56      H      0.976610000000     0.427200000000     0.776980000000     0.0526604  
H57      H      0.016110000000     0.427190000000     0.215740000000     0.0527111  
H58      H      0.014470000000     0.427530000000     0.135370000000     0.0264361  
H59      H      0.986750000000     0.566160000000     0.135910000000     0.0264482  
H60      H      0.986870000000     0.566240000000     0.216240000000     0.0526874  
H61      H      0.931010000000     0.509480000000     0.275550000000     0.0527582  
H62      H      0.929810000000     0.508400000000     0.355810000000     0.026357   
H63      H      0.069030000000     0.483790000000     0.358280000000     0.0263584  
H64      H      0.070680000000     0.483350000000     0.277840000000     0.0526493  
H65      H      0.214880000000     0.983370000000     0.422050000000     0.0526207  
H66      H      0.134440000000     0.983810000000     0.423700000000     0.0263773  
H67      H      0.136910000000     0.008400000000     0.562920000000     0.0263872  
H68      H      0.217170000000     0.009480000000     0.561740000000     0.0527142  
H69      H      0.276480000000     0.066250000000     0.505870000000     0.0526676  
H70      H      0.356810000000     0.066150000000     0.505990000000     0.026433   
H71      H      0.357340000000     0.927520000000     0.478280000000     0.0263986  
H72      H      0.276970000000     0.927200000000     0.476630000000     0.0526965  
H73      H      0.777830000000     0.983350000000     0.570680000000     0.0526127  
H74      H      0.858270000000     0.983780000000     0.569030000000     0.0263686  
H75      H      0.855800000000     0.008390000000     0.429810000000     0.0263818  
H76      H      0.775540000000     0.009460000000     0.431000000000     0.0527102  
H77      H      0.716230000000     0.066230000000     0.486870000000     0.0526963  
H78      H      0.635900000000     0.066140000000     0.486740000000     0.0264306  
H79      H      0.635360000000     0.927510000000     0.514460000000     0.0264087  
H80      H      0.715730000000     0.927180000000     0.516110000000     0.0526888  
H81      H      0.926180000000     0.715530000000     0.485280000000     0.0526978  
H82      H      0.926420000000     0.635180000000     0.486010000000     0.0263348  
H83      H      0.066310000000     0.635170000000     0.506710000000     0.0263258  
H84      H      0.066560000000     0.715520000000     0.507430000000     0.0527099  
H85      H      0.010800000000     0.776160000000     0.565930000000     0.0527257  
H86      H      0.010060000000     0.856510000000     0.565720000000     0.0264285  
H87      H      0.982660000000     0.856510000000     0.426990000000     0.0264068  
H88      H      0.981930000000     0.776160000000     0.426780000000     0.052701   
H89      H      0.926780000000     0.276170000000     0.481920000000     0.0527393  
H90      H      0.926990000000     0.356520000000     0.482660000000     0.0264136  
H91      H      0.065710000000     0.356510000000     0.510080000000     0.0264251  
H92      H      0.065920000000     0.276160000000     0.510820000000     0.052721   
H93      H      0.007430000000     0.215520000000     0.566560000000     0.0527159  
H94      H      0.006700000000     0.135170000000     0.566310000000     0.0263562  
H95      H      0.985990000000     0.135180000000     0.426430000000     0.0263275  
H96      H      0.985260000000     0.215530000000     0.426180000000     0.0526885  
N1       N      0.863060000000     0.496830000000     0.000410000000    -0.192554   
N2       N      0.629730000000     0.496070000000     0.999340000000    -0.192664   
N3       N      0.129680000000     0.496820000000     0.992320000000    -0.192614   
N4       N      0.363020000000     0.496060000000     0.993400000000    -0.192624   
N5       N      0.496370000000     0.629200000000     0.996370000000    -0.192666   
N6       N      0.496360000000     0.862480000000     0.996370000000    -0.19267    
N7       N      0.496370000000     0.129200000000     0.996370000000    -0.192691   
N8       N      0.496370000000     0.362480000000     0.996370000000    -0.19267    
N9       N      0.492320000000     0.996810000000     0.629680000000    -0.192664   
N10      N      0.493400000000     0.996060000000     0.863020000000    -0.192639   
N11      N      0.499320000000     0.996060000000     0.129730000000    -0.192637   
N12      N      0.500390000000     0.996810000000     0.363060000000    -0.192604   
N13      N      0.993390000000     0.496070000000     0.629720000000    -0.192644   
N14      N      0.992330000000     0.496830000000     0.863050000000    -0.192588   
N15      N      0.000410000000     0.496820000000     0.129670000000    -0.192534   
N16      N      0.999330000000     0.496060000000     0.363010000000    -0.192661   
N17      N      0.129710000000     0.996070000000     0.493400000000    -0.19264    
N18      N      0.363040000000     0.996820000000     0.492330000000    -0.19262    
N19      N      0.863000000000     0.996050000000     0.499330000000    -0.192633   
N20      N      0.629660000000     0.996810000000     0.500410000000    -0.192664   
N21      N      0.996370000000     0.629200000000     0.496360000000    -0.192661   
N22      N      0.996360000000     0.862480000000     0.496360000000    -0.192679   
N23      N      0.996350000000     0.362480000000     0.496370000000    -0.192621   
N24      N      0.996340000000     0.129200000000     0.496370000000    -0.192665   
O1       O      0.996680000000     0.062770000000     0.533150000000    -0.397693   
O2       O      0.998470000000     0.928920000000     0.533080000000    -0.397689   
O3       O      0.064130000000     0.997020000000     0.531570000000    -0.398219   
O4       O      0.930290000000     0.994690000000     0.534670000000    -0.397005   
O5       O      0.928580000000     0.997010000000     0.461160000000    -0.398252   
O6       O      0.062420000000     0.994710000000     0.458060000000    -0.396972   
O7       O      0.994240000000     0.928920000000     0.459640000000    -0.397671   
O8       O      0.996010000000     0.062770000000     0.459590000000    -0.397679   
O9       O      0.034670000000     0.494690000000     0.430300000000    -0.396955   
O10      O      0.031560000000     0.497020000000     0.564140000000    -0.398188   
O11      O      0.033080000000     0.428920000000     0.498490000000    -0.397653   
O12      O      0.033140000000     0.562770000000     0.496700000000    -0.39773    
O13      O      0.959580000000     0.562770000000     0.496020000000    -0.397703   
O14      O      0.959640000000     0.428920000000     0.494250000000    -0.397651   
O15      O      0.958050000000     0.494710000000     0.562430000000    -0.397012   
O16      O      0.961160000000     0.497010000000     0.428590000000    -0.398243   
O17      O      0.492140000000     0.960060000000     0.563210000000    -0.397355   
O18      O      0.500560000000     0.960060000000     0.429540000000    -0.397418   
O19      O      0.563190000000     0.960050000000     0.500580000000    -0.397287   
O20      O      0.429520000000     0.960060000000     0.492160000000    -0.397336   
O21      O      0.429430000000     0.033490000000     0.496220000000    -0.397827   
O22      O      0.563280000000     0.033480000000     0.496520000000    -0.39778    
O23      O      0.496510000000     0.033490000000     0.429440000000    -0.39775    
O24      O      0.496200000000     0.033490000000     0.563300000000    -0.397711   
O25      O      0.534670000000     0.994700000000     0.062440000000    -0.396913   
O26      O      0.531570000000     0.997010000000     0.928600000000    -0.398329   
O27      O      0.533150000000     0.062760000000     0.996040000000    -0.397633   
O28      O      0.533080000000     0.928920000000     0.994250000000    -0.397683   
O29      O      0.459640000000     0.928920000000     0.998490000000    -0.397682   
O30      O      0.459590000000     0.062770000000     0.996710000000    -0.397746   
O31      O      0.458060000000     0.994700000000     0.930310000000    -0.397028   
O32      O      0.461160000000     0.997010000000     0.064150000000    -0.398196   
O33      O      0.000580000000     0.460070000000     0.063200000000    -0.397059   
O34      O      0.992160000000     0.460070000000     0.929530000000    -0.397313   
O35      O      0.063210000000     0.460070000000     0.992150000000    -0.397266   
O36      O      0.929530000000     0.460070000000     0.000580000000    -0.397117   
O37      O      0.929440000000     0.533500000000     0.996520000000    -0.397787   
O38      O      0.063300000000     0.533500000000     0.996210000000    -0.397696   
O39      O      0.996220000000     0.533500000000     0.929440000000    -0.397868   
O40      O      0.996530000000     0.533500000000     0.063290000000    -0.397729   
O41      O      0.494250000000     0.428920000000     0.033090000000    -0.397612   
O42      O      0.496030000000     0.562770000000     0.033150000000    -0.397659   
O43      O      0.428600000000     0.497010000000     0.031570000000    -0.398258   
O44      O      0.562430000000     0.494700000000     0.034680000000    -0.396919   
O45      O      0.564150000000     0.497020000000     0.961170000000    -0.398215   
O46      O      0.430310000000     0.494700000000     0.958060000000    -0.397016   
O47      O      0.496710000000     0.562770000000     0.959590000000    -0.3977     
O48      O      0.498490000000     0.428920000000     0.959650000000    -0.397663   


