data_structure

_audit_creation_method RASPA-1.0
_audit_creation_date 2023-6-4
_audit_author_name 'Poobodin Mano'

_cell_length_a    26.6071
_cell_length_b    26.9884
_cell_length_c    38.5798
_cell_angle_alpha 89.9988
_cell_angle_beta  89.9988
_cell_angle_gamma 93.6527
_cell_volume      27647.2

_symmetry_cell_setting          triclinic
_symmetry_space_group_name_Hall 'P 1'
_symmetry_space_group_name_H-M  'P 1'
_symmetry_Int_Tables_number     1

_symmetry_equiv_pos_as_xyz 'x,y,z'

loop_
_atom_site_label
_atom_site_type_symbol
_atom_site_fract_x
_atom_site_fract_y
_atom_site_fract_z
_atom_site_charge
C1       C      0.072400000000     0.930520000000     0.009600000000     0.398609   
C2       C      0.912940000000     0.044490000000     0.011740000000     0.398532   
C3       C      0.051230000000     0.070090000000     0.010400000000     0.414918   
C4       C      0.934010000000     0.904310000000     0.010450000000     0.41543    
C5       C      0.068090000000     0.927780000000     0.492480000000     0.40128    
C6       C      0.944390000000     0.078230000000     0.492010000000     0.400052   
C7       C      0.086260000000     0.066170000000     0.487830000000     0.411131   
C8       C      0.926530000000     0.939190000000     0.496660000000     0.414184   
C9       C      0.492990000000     0.485240000000     0.936210000000     0.477281   
C10      C      0.490830000000     0.488120000000     0.069010000000     0.477524   
C11      C      0.554050000000     0.417080000000     0.003530000000     0.461888   
C12      C      0.432230000000     0.558580000000     0.001850000000     0.462553   
C13      C      0.503140000000     0.503710000000     0.436330000000     0.474183   
C14      C      0.503370000000     0.496940000000     0.568730000000     0.472314   
C15      C      0.566890000000     0.431360000000     0.501260000000     0.451062   
C16      C      0.435080000000     0.563580000000     0.503770000000     0.462196   
C17      C      0.466250000000     0.453640000000     0.844000000000    -0.132707   
C18      C      0.537230000000     0.526790000000     0.622560000000     0.0753095  
C19      C      0.471020000000     0.463680000000     0.621990000000     0.0754944  
C20      C      0.538120000000     0.526140000000     0.658780000000    -0.0958178  
C21      C      0.509340000000     0.536120000000     0.734930000000    -0.0374339  
C22      C      0.508170000000     0.534690000000     0.771160000000    -0.0329346  
C23      C      0.505190000000     0.491950000000     0.715530000000    -0.00678301 
C24      C      0.471080000000     0.461910000000     0.658150000000    -0.0959226  
C25      C      0.502950000000     0.489050000000     0.788800000000    -0.0145888  
C26      C      0.530910000000     0.519400000000     0.847630000000    -0.105565   
C27      C      0.499630000000     0.444890000000     0.769350000000    -0.0330199  
C28      C      0.527500000000     0.517350000000     0.883670000000     0.0781153  
C29      C      0.463490000000     0.451660000000     0.880420000000     0.153155   
C30      C      0.500640000000     0.446330000000     0.733170000000    -0.037657   
C31      C      0.504870000000     0.493360000000     0.677020000000     0.0499051  
C32      C      0.500080000000     0.487400000000     0.827310000000     0.0658764  
C33      C      0.426310000000     0.412720000000     0.895700000000    -0.216804   
C34      C      0.458130000000     0.465030000000     0.161560000000    -0.132673   
C35      C      0.534750000000     0.536170000000     0.382520000000     0.0752278  
C36      C      0.468370000000     0.473240000000     0.383050000000     0.0753232  
C37      C      0.534190000000     0.537010000000     0.346280000000    -0.0959343  
C38      C      0.543220000000     0.507370000000     0.270160000000    -0.0376351  
C39      C      0.541730000000     0.505350000000     0.233940000000    -0.033051   
C40      C      0.498400000000     0.505470000000     0.289540000000    -0.00687401 
C41      C      0.466640000000     0.473310000000     0.346910000000    -0.0961065  
C42      C      0.495370000000     0.501530000000     0.216300000000    -0.0147133  
C43      C      0.527250000000     0.526070000000     0.157160000000    -0.105827   
C44      C      0.450600000000     0.500620000000     0.235720000000    -0.0330575  
C45      C      0.525060000000     0.521750000000     0.121180000000     0.0783105  
C46      C      0.456170000000     0.461190000000     0.125170000000     0.153281   
C47      C      0.452100000000     0.502480000000     0.271890000000    -0.0377859  
C48      C      0.499760000000     0.505410000000     0.328040000000     0.0497982  
C49      C      0.493570000000     0.497610000000     0.177840000000     0.0658567  
C50      C      0.416180000000     0.424700000000     0.110370000000    -0.217264   
C51      C      0.150120000000     0.827650000000     0.465230000000    -0.128166   
C52      C      0.348980000000     0.584180000000     0.503640000000     0.0738986  
C53      C      0.413750000000     0.648460000000     0.503720000000     0.0730818  
C54      C      0.312210000000     0.619140000000     0.502950000000    -0.0938791  
C55      C      0.293440000000     0.752740000000     0.519950000000    -0.0373384  
C56      C      0.256900000000     0.788020000000     0.518600000000    -0.0335446  
C57      C      0.287260000000     0.707980000000     0.501190000000    -0.00618222 
C58      C      0.377910000000     0.684450000000     0.503120000000    -0.0933598  
C59      C      0.213140000000     0.779760000000     0.498310000000    -0.0129694  
C60      C      0.160850000000     0.844150000000     0.525790000000    -0.100992   
C61      C      0.206960000000     0.734980000000     0.479600000000    -0.0335912  
C62      C      0.124770000000     0.879600000000     0.523530000000     0.0721872  
C63      C      0.113460000000     0.863260000000     0.463390000000     0.147876   
C64      C      0.243380000000     0.699670000000     0.481040000000    -0.0374937  
C65      C      0.326240000000     0.670150000000     0.502540000000     0.0477317  
C66      C      0.174320000000     0.817720000000     0.496450000000     0.0617135  
C67      C      0.088140000000     0.869140000000     0.428590000000    -0.216381   
C68      C      0.819570000000     0.859700000000     0.529740000000    -0.13544    
C69      C      0.629720000000     0.585810000000     0.481460000000     0.0745159  
C70      C      0.588390000000     0.622150000000     0.528730000000     0.07311    
C71      C      0.667010000000     0.624330000000     0.481570000000    -0.0920587  
C72      C      0.753670000000     0.697040000000     0.498600000000    -0.038039   
C73      C      0.789260000000     0.737070000000     0.497260000000    -0.0325816  
C74      C      0.703040000000     0.704760000000     0.505970000000    -0.00603224 
C75      C      0.625240000000     0.660940000000     0.530140000000    -0.0918659  
C76      C      0.774890000000     0.785230000000     0.503790000000    -0.0162814  
C77      C      0.840710000000     0.835220000000     0.471850000000    -0.108028   
C78      C      0.724690000000     0.793100000000     0.511770000000    -0.0326774  
C79      C      0.877020000000     0.874350000000     0.470560000000     0.0783157  
C80      C      0.856440000000     0.899080000000     0.527980000000     0.15437    
C81      C      0.688910000000     0.753210000000     0.512580000000    -0.0380249  
C82      C      0.664860000000     0.662640000000     0.506070000000     0.047706   
C83      C      0.812300000000     0.827330000000     0.501810000000     0.0687442  
C84      C      0.860000000000     0.934720000000     0.558340000000    -0.219625   
C85      C      0.864290000000     0.179550000000     0.464670000000    -0.128922   
C86      C      0.605680000000     0.361780000000     0.525660000000     0.0693472  
C87      C      0.642270000000     0.403530000000     0.477100000000     0.0732715  
C88      C      0.643800000000     0.328180000000     0.525610000000    -0.092736   
C89      C      0.712320000000     0.245110000000     0.511090000000    -0.037375   
C90      C      0.749760000000     0.210760000000     0.510220000000    -0.0340057  
C91      C      0.721930000000     0.294180000000     0.498970000000    -0.00607332 
C92      C      0.680440000000     0.369960000000     0.475800000000    -0.0928753  
C93      C      0.797720000000     0.223930000000     0.496570000000    -0.0133264  
C94      C      0.848420000000     0.158870000000     0.524200000000    -0.102006   
C95      C      0.807490000000     0.272580000000     0.484180000000    -0.033978   
C96      C      0.885350000000     0.124230000000     0.522430000000     0.0721233  
C97      C      0.901170000000     0.144110000000     0.463210000000     0.148566   
C98      C      0.770410000000     0.307290000000     0.485660000000    -0.0372934  
C99      C      0.681650000000     0.331100000000     0.500090000000     0.0463994  
C100     C      0.837280000000     0.186960000000     0.495130000000     0.0619902  
C101     C      0.930070000000     0.140670000000     0.429580000000    -0.217735   
C102     C      0.412510000000     0.323720000000     0.490200000000    -0.0812052  
C103     C      0.148160000000     0.110710000000     0.453720000000     0.0730042  
C104     C      0.152760000000     0.114110000000     0.515160000000     0.0736936  
C105     C      0.191060000000     0.142720000000     0.450980000000    -0.0968938  
C106     C      0.252460000000     0.240470000000     0.457120000000    -0.0352503  
C107     C      0.287620000000     0.280720000000     0.459080000000    -0.0373079  
C108     C      0.256660000000     0.199360000000     0.478960000000    -0.00899173 
C109     C      0.195760000000     0.146040000000     0.513360000000    -0.0962415  
C110     C      0.327490000000     0.280390000000     0.482840000000    -0.00640346 
C111     C      0.338150000000     0.371320000000     0.492760000000    -0.0947935  
C112     C      0.333600000000     0.238040000000     0.503090000000    -0.0371688  
C113     C      0.368950000000     0.414090000000     0.498190000000     0.0816889  
C114     C      0.442090000000     0.367730000000     0.495560000000     0.0473631  
C115     C      0.298270000000     0.197770000000     0.501230000000    -0.0355598  
C116     C      0.214900000000     0.161080000000     0.481030000000     0.0513076  
C117     C      0.360000000000     0.325690000000     0.488460000000     0.0447426  
C118     C      0.498750000000     0.369320000000     0.496440000000     0.0752281  
C119     C      0.174650000000     0.850360000000     0.036570000000    -0.127804   
C120     C      0.347750000000     0.584250000000     0.000920000000     0.0721142  
C121     C      0.415920000000     0.644930000000     0.002160000000     0.0723614  
C122     C      0.313190000000     0.621440000000     0.000810000000    -0.0934003  
C123     C      0.248570000000     0.707500000000     0.982350000000    -0.0375167  
C124     C      0.213930000000     0.744690000000     0.983140000000    -0.0335997  
C125     C      0.293410000000     0.712040000000     0.001880000000    -0.00620082 
C126     C      0.382330000000     0.683070000000     0.002230000000    -0.0929263  
C127     C      0.222810000000     0.787560000000     0.003640000000    -0.0130389  
C128     C      0.158810000000     0.840720000000     0.975830000000    -0.10073    
C129     C      0.267820000000     0.792270000000     0.022960000000    -0.0336559  
C130     C      0.122900000000     0.876450000000     0.978070000000     0.0703259  
C131     C      0.138670000000     0.886690000000     0.038350000000     0.147358   
C132     C      0.302560000000     0.755200000000     0.022050000000    -0.0376858  
C133     C      0.330060000000     0.671790000000     0.001550000000     0.0468886  
C134     C      0.185000000000     0.826680000000     0.005310000000     0.0606665  
C135     C      0.132820000000     0.911900000000     0.073060000000    -0.216366   
C136     C      0.870400000000     0.786310000000     0.982500000000    -0.134898   
C137     C      0.590480000000     0.603410000000     0.027080000000     0.0737333  
C138     C      0.624780000000     0.561490000000     0.979260000000     0.0736896  
C139     C      0.633050000000     0.635890000000     0.028840000000    -0.0931345  
C140     C      0.743060000000     0.674080000000     0.036910000000    -0.0385702  
C141     C      0.783600000000     0.709260000000     0.038140000000    -0.0324748  
C142     C      0.716590000000     0.665610000000     0.005860000000    -0.00653493 
C143     C      0.667700000000     0.593610000000     0.979770000000    -0.0930975  
C144     C      0.797610000000     0.736890000000     0.008430000000    -0.0159014  
C145     C      0.840920000000     0.808840000000     0.038950000000    -0.106733   
C146     C      0.771510000000     0.727470000000     0.977200000000    -0.0319619  
C147     C      0.875270000000     0.849700000000     0.038770000000     0.0785046  
C148     C      0.904880000000     0.827650000000     0.982830000000     0.154962   
C149     C      0.731510000000     0.691810000000     0.975880000000    -0.0383946  
C150     C      0.672050000000     0.630940000000     0.004970000000     0.0483281  
C151     C      0.837360000000     0.777400000000     0.010230000000     0.0678354  
C152     C      0.941950000000     0.832870000000     0.953030000000    -0.219602   
C153     C      0.817930000000     0.131590000000     0.041040000000    -0.127872   
C154     C      0.638470000000     0.391610000000     0.006430000000     0.0722518  
C155     C      0.570700000000     0.330810000000     0.001860000000     0.0714744  
C156     C      0.673120000000     0.354540000000     0.007180000000    -0.0934204  
C157     C      0.688080000000     0.222810000000     0.983780000000    -0.0375663  
C158     C      0.723010000000     0.185820000000     0.984560000000    -0.0338742  
C159     C      0.693270000000     0.264250000000     0.006010000000    -0.00652149 
C160     C      0.604450000000     0.292780000000     0.002110000000    -0.0933322  
C161     C      0.763740000000     0.188800000000     0.007960000000    -0.0132413  
C162     C      0.819900000000     0.128730000000     0.979120000000    -0.10073    
C163     C      0.768710000000     0.230100000000     0.030300000000    -0.0340166  
C164     C      0.856190000000     0.093310000000     0.981020000000     0.0697198  
C165     C      0.853740000000     0.095070000000     0.042580000000     0.146609   
C166     C      0.734210000000     0.267320000000     0.029220000000    -0.0377527  
C167     C      0.656510000000     0.304240000000     0.005000000000     0.0468799  
C168     C      0.800870000000     0.149140000000     0.009310000000     0.0605783  
C169     C      0.867750000000     0.077690000000     0.078440000000    -0.215919   
C170     C      0.114320000000     0.188790000000     0.983270000000    -0.134717   
C171     C      0.397870000000     0.367260000000     0.023680000000     0.0708575  
C172     C      0.357480000000     0.416740000000     0.982490000000     0.070769   
C173     C      0.355550000000     0.334470000000     0.025570000000    -0.0950842  
C174     C      0.244870000000     0.297830000000     0.037650000000    -0.0386503  
C175     C      0.204300000000     0.262710000000     0.038900000000    -0.0328796  
C176     C      0.269230000000     0.308500000000     0.006110000000    -0.00746277 
C177     C      0.314750000000     0.384380000000     0.983040000000    -0.0949706  
C178     C      0.188310000000     0.237180000000     0.008710000000    -0.0158774  
C179     C      0.146430000000     0.163760000000     0.038430000000    -0.106865   
C180     C      0.212390000000     0.248840000000     0.977030000000    -0.0324184  
C181     C      0.111850000000     0.123110000000     0.038220000000     0.0781729  
C182     C      0.079760000000     0.147480000000     0.983500000000     0.15473    
C183     C      0.252310000000     0.284600000000     0.975710000000    -0.0384382  
C184     C      0.313630000000     0.343160000000     0.005060000000     0.0478095  
C185     C      0.148670000000     0.196490000000     0.010400000000     0.0674508  
C186     C      0.041450000000     0.143420000000     0.954410000000    -0.219827   
Cu1      Cu     0.991880000000     0.987610000000     0.978620000000     0.837027   
Cu2      Cu     0.993160000000     0.986920000000     0.042360000000     0.838311   
Cu3      Cu     0.004070000000     0.001010000000     0.460460000000     0.839184   
Cu4      Cu     0.008310000000     0.005000000000     0.524130000000     0.8407     
Cu5      Cu     0.532330000000     0.522060000000     0.002580000000     1.17331    
Cu6      Cu     0.452790000000     0.452610000000     0.002600000000     1.17066    
Cu7      Cu     0.540440000000     0.536050000000     0.502710000000     1.15248    
Cu8      Cu     0.465800000000     0.463190000000     0.502320000000     1.18628    
H1       H      0.444110000000     0.438750000000     0.608470000000     0.0246561  
H2       H      0.552470000000     0.543360000000     0.897910000000     0.0232252  
H3       H      0.498260000000     0.411620000000     0.718980000000     0.0365726  
H4       H      0.510200000000     0.569410000000     0.785320000000     0.0355243  
H5       H      0.558140000000     0.545760000000     0.835800000000     0.0539965  
H6       H      0.512310000000     0.571880000000     0.722090000000     0.0369389  
H7       H      0.441500000000     0.429000000000     0.828560000000     0.0598598  
H8       H      0.444270000000     0.436440000000     0.671230000000     0.0519058  
H9       H      0.565180000000     0.550760000000     0.672350000000     0.0519813  
H10      H      0.496600000000     0.409070000000     0.782100000000     0.0347632  
H11      H      0.563740000000     0.552620000000     0.609480000000     0.0233788  
H12      H      0.395950000000     0.430980000000     0.909490000000     0.08472    
H13      H      0.407750000000     0.388560000000     0.875510000000     0.0684405  
H14      H      0.445900000000     0.387720000000     0.913300000000     0.0877318  
H15      H      0.442120000000     0.447580000000     0.396530000000     0.0240739  
H16      H      0.552320000000     0.545040000000     0.106680000000     0.0228943  
H17      H      0.416920000000     0.501840000000     0.286050000000     0.0367262  
H18      H      0.576900000000     0.505550000000     0.219800000000     0.0351743  
H19      H      0.555010000000     0.552220000000     0.168640000000     0.0538159  
H20      H      0.579480000000     0.509120000000     0.283010000000     0.0365124  
H21      H      0.432280000000     0.441970000000     0.177320000000     0.0597121  
H22      H      0.439900000000     0.447750000000     0.333840000000     0.0516722  
H23      H      0.560180000000     0.562710000000     0.332690000000     0.0517812  
H24      H      0.414270000000     0.498720000000     0.222960000000     0.03475    
H25      H      0.561870000000     0.561330000000     0.395650000000     0.0234456  
H26      H      0.434350000000     0.394650000000     0.096460000000     0.0845973  
H27      H      0.392080000000     0.406500000000     0.130820000000     0.0683044  
H28      H      0.390530000000     0.444050000000     0.093000000000     0.0874684  
H29      H      0.453170000000     0.661420000000     0.503860000000     0.0239102  
H30      H      0.116620000000     0.899020000000     0.547270000000     0.0242794  
H31      H      0.237360000000     0.666020000000     0.465920000000     0.0364689  
H32      H      0.263330000000     0.822160000000     0.533140000000     0.0355963  
H33      H      0.177820000000     0.837310000000     0.550710000000     0.0530152  
H34      H      0.326360000000     0.760390000000     0.536050000000     0.0366424  
H35      H      0.160100000000     0.807840000000     0.442050000000     0.0587783  
H36      H      0.390810000000     0.723310000000     0.502470000000     0.0512713  
H37      H      0.272880000000     0.606050000000     0.503090000000     0.0511911  
H38      H      0.173610000000     0.726870000000     0.464010000000     0.0347088  
H39      H      0.336050000000     0.545270000000     0.503900000000     0.0231376  
H40      H      0.099910000000     0.905810000000     0.417160000000     0.0840781  
H41      H      0.098390000000     0.840400000000     0.409690000000     0.0680499  
H42      H      0.046570000000     0.864830000000     0.431510000000     0.0841543  
H43      H      0.557230000000     0.621240000000     0.546770000000     0.0145272  
H44      H      0.899180000000     0.878130000000     0.446990000000     0.0203308  
H45      H      0.650050000000     0.760510000000     0.517690000000     0.0365204  
H46      H      0.828090000000     0.730430000000     0.491400000000     0.0358464  
H47      H      0.835130000000     0.811000000000     0.449580000000     0.0546646  
H48      H      0.765900000000     0.660090000000     0.494030000000     0.0367586  
H49      H      0.796730000000     0.854050000000     0.552860000000     0.0613282  
H50      H      0.622620000000     0.689270000000     0.549810000000     0.0500587  
H51      H      0.696480000000     0.624600000000     0.462210000000     0.0502632  
H52      H      0.713010000000     0.830220000000     0.516590000000     0.0352232  
H53      H      0.631000000000     0.556360000000     0.462530000000     0.0146718  
H54      H      0.863190000000     0.973730000000     0.549030000000     0.0844519  
H55      H      0.825780000000     0.931070000000     0.574890000000     0.0693132  
H56      H      0.892810000000     0.927010000000     0.574810000000     0.0844196  
H57      H      0.642550000000     0.432780000000     0.457800000000     0.0179742  
H58      H      0.891730000000     0.103160000000     0.545790000000     0.0212515  
H59      H      0.780260000000     0.344650000000     0.476730000000     0.0360234  
H60      H      0.740810000000     0.173410000000     0.519620000000     0.03544    
H61      H      0.828790000000     0.163770000000     0.548450000000     0.0528491  
H62      H      0.675520000000     0.232640000000     0.520810000000     0.0355153  
H63      H      0.856350000000     0.201250000000     0.441880000000     0.0592039  
H64      H      0.708190000000     0.374250000000     0.455360000000     0.0502311  
H65      H      0.643850000000     0.300710000000     0.546040000000     0.0499319  
H66      H      0.844260000000     0.284090000000     0.473850000000     0.0354647  
H67      H      0.578440000000     0.359290000000     0.546550000000     0.0128665  
H68      H      0.917700000000     0.106020000000     0.415670000000     0.0838835  
H69      H      0.923750000000     0.172290000000     0.411990000000     0.0687286  
H70      H      0.971190000000     0.141920000000     0.434750000000     0.0846559  
H71      H      0.138680000000     0.103860000000     0.540720000000     0.0238367  
H72      H      0.352490000000     0.449430000000     0.501040000000     0.0128987  
H73      H      0.302470000000     0.166140000000     0.518040000000     0.0361628  
H74      H      0.282690000000     0.312850000000     0.442880000000     0.036607   
H75      H      0.297680000000     0.373800000000     0.492070000000     0.05136    
H76      H      0.220540000000     0.242730000000     0.439890000000     0.0359262  
H77      H      0.430160000000     0.288950000000     0.486810000000     0.0449461  
H78      H      0.212800000000     0.160200000000     0.537180000000     0.0523356  
H79      H      0.205100000000     0.153490000000     0.425540000000     0.05129    
H80      H      0.364150000000     0.237090000000     0.521590000000     0.036339   
H81      H      0.130450000000     0.097560000000     0.429840000000     0.0219898  
H82      H      0.501180000000     0.350040000000     0.521750000000     0.0154834  
H83      H      0.523410000000     0.338510000000     0.491280000000     0.00573556 
H84      H      0.503230000000     0.365160000000     0.467910000000     0.0160952  
H85      H      0.455890000000     0.655650000000     0.002630000000     0.0244273  
H86      H      0.103360000000     0.884810000000     0.954330000000     0.0215539  
H87      H      0.336280000000     0.760070000000     0.037700000000     0.0364866  
H88      H      0.179650000000     0.739340000000     0.968100000000     0.0348675  
H89      H      0.165990000000     0.824250000000     0.950860000000     0.0519968  
H90      H      0.240270000000     0.675250000000     0.966160000000     0.0363942  
H91      H      0.194350000000     0.840230000000     0.059850000000     0.0586119  
H92      H      0.397470000000     0.721280000000     0.002380000000     0.0511251  
H93      H      0.273310000000     0.610550000000     0.000750000000     0.0506064  
H94      H      0.276480000000     0.824870000000     0.038750000000     0.0347169  
H95      H      0.332620000000     0.545990000000     0.000510000000     0.0224991  
H96      H      0.096670000000     0.898630000000     0.085300000000     0.083527   
H97      H      0.163480000000     0.903760000000     0.091360000000     0.0681264  
H98      H      0.134790000000     0.952860000000     0.069800000000     0.0841217  
H99      H      0.621480000000     0.531840000000     0.960380000000     0.0144367  
H100     H      0.875220000000     0.874220000000     0.061050000000     0.0203772  
H101     H      0.711080000000     0.685970000000     0.951780000000     0.0373656  
H102     H      0.803590000000     0.715150000000     0.062390000000     0.034495   
H103     H      0.815810000000     0.803330000000     0.060900000000     0.0538396  
H104     H      0.732210000000     0.653660000000     0.060200000000     0.0371304  
H105     H      0.869540000000     0.760910000000     0.960700000000     0.0604551  
H106     H      0.697430000000     0.588970000000     0.961080000000     0.050963   
H107     H      0.635250000000     0.664900000000     0.048300000000     0.0510739  
H108     H      0.780810000000     0.748780000000     0.954030000000     0.0349701  
H109     H      0.560050000000     0.607010000000     0.045300000000     0.014659   
H110     H      0.980440000000     0.843370000000     0.962770000000     0.0848209  
H111     H      0.944490000000     0.797330000000     0.938770000000     0.0694105  
H112     H      0.929850000000     0.860990000000     0.934310000000     0.0837308  
H113     H      0.530850000000     0.320020000000     0.999850000000     0.0227057  
H114     H      0.870150000000     0.080020000000     0.956540000000     0.0226727  
H115     H      0.739320000000     0.298350000000     0.046950000000     0.0366085  
H116     H      0.717700000000     0.154480000000     0.967120000000     0.0354706  
H117     H      0.807900000000     0.141050000000     0.953890000000     0.0521203  
H118     H      0.657340000000     0.219280000000     0.965370000000     0.0366544  
H119     H      0.802690000000     0.145980000000     0.064800000000     0.0586449  
H120     H      0.589660000000     0.254510000000     0.000660000000     0.050732   
H121     H      0.712910000000     0.365430000000     0.009040000000     0.0512231  
H122     H      0.799760000000     0.234010000000     0.048450000000     0.03506    
H123     H      0.653400000000     0.429870000000     0.008050000000     0.0243678  
H124     H      0.907350000000     0.090210000000     0.084440000000     0.0835712  
H125     H      0.843900000000     0.092990000000     0.098990000000     0.0679679  
H126     H      0.862020000000     0.036670000000     0.080260000000     0.0845465  
H127     H      0.358400000000     0.449310000000     0.966140000000     0.0111828  
H128     H      0.112860000000     0.097670000000     0.059960000000     0.0194953  
H129     H      0.271140000000     0.292330000000     0.951210000000     0.036129   
H130     H      0.185860000000     0.255220000000     0.063550000000     0.0339738  
H131     H      0.172620000000     0.168150000000     0.059870000000     0.0532258  
H132     H      0.257410000000     0.316500000000     0.061270000000     0.0358925  
H133     H      0.114170000000     0.215110000000     0.962040000000     0.0602133  
H134     H      0.282740000000     0.391760000000     0.966920000000     0.0498297  
H135     H      0.355720000000     0.302410000000     0.042470000000     0.0498901  
H136     H      0.201610000000     0.229210000000     0.953430000000     0.034576   
H137     H      0.430700000000     0.360740000000     0.039100000000     0.010118   
H138     H      0.003320000000     0.132850000000     0.964790000000     0.0850306  
H139     H      0.038570000000     0.179410000000     0.940780000000     0.0696483  
H140     H      0.052540000000     0.115770000000     0.935010000000     0.083913   
N1       N      0.494110000000     0.484270000000     0.900370000000    -0.220091   
N2       N      0.503890000000     0.495820000000     0.604290000000    -0.207185   
N3       N      0.490170000000     0.489760000000     0.104860000000    -0.220092   
N4       N      0.502110000000     0.504460000000     0.400770000000    -0.207634   
N5       N      0.101510000000     0.890240000000     0.492710000000    -0.204293   
N6       N      0.399480000000     0.598600000000     0.503820000000    -0.203427   
N7       N      0.886440000000     0.904870000000     0.498660000000    -0.211569   
N8       N      0.591260000000     0.585750000000     0.504610000000    -0.261782   
N9       N      0.910890000000     0.115560000000     0.492170000000    -0.205084   
N10      N      0.604020000000     0.398060000000     0.500870000000    -0.204647   
N11      N      0.419590000000     0.411000000000     0.499330000000    -0.267689   
N12      N      0.128840000000     0.097050000000     0.485570000000    -0.197131   
N13      N      0.111430000000     0.898630000000     0.009030000000    -0.204331   
N14      N      0.398850000000     0.595760000000     0.001610000000    -0.203372   
N15      N      0.905170000000     0.860550000000     0.010420000000    -0.212282   
N16      N      0.587390000000     0.567000000000     0.002700000000    -0.264738   
N17      N      0.874260000000     0.076910000000     0.012230000000    -0.203937   
N18      N      0.587500000000     0.379980000000     0.003940000000    -0.203391   
N19      N      0.080490000000     0.113580000000     0.010430000000    -0.21246    
N20      N      0.397760000000     0.407650000000     0.002670000000    -0.265702   
O1       O      0.053320000000     0.945350000000     0.980990000000    -0.393508   
O2       O      0.930510000000     0.029730000000     0.982630000000    -0.393398   
O3       O      0.036510000000     0.050480000000     0.981640000000    -0.410424   
O4       O      0.947450000000     0.924720000000     0.981690000000    -0.410797   
O5       O      0.946500000000     0.925140000000     0.039350000000    -0.406574   
O6       O      0.039730000000     0.048640000000     0.039260000000    -0.407827   
O7       O      0.933090000000     0.030400000000     0.040030000000    -0.399291   
O8       O      0.053290000000     0.943750000000     0.038470000000    -0.398918   
O9       O      0.050860000000     0.944050000000     0.463830000000    -0.399262   
O10      O      0.957800000000     0.058610000000     0.463370000000    -0.398503   
O11      O      0.064750000000     0.049560000000     0.460060000000    -0.406979   
O12      O      0.944100000000     0.952350000000     0.466840000000    -0.407042   
O13      O      0.947820000000     0.956090000000     0.524370000000    -0.409374   
O14      O      0.068540000000     0.053460000000     0.517690000000    -0.403932   
O15      O      0.960860000000     0.061570000000     0.520870000000    -0.3954     
O16      O      0.055150000000     0.947790000000     0.521180000000    -0.393125   
O17      O      0.523880000000     0.514260000000     0.952870000000    -0.479137   
O18      O      0.522480000000     0.516030000000     0.052190000000    -0.479448   
O19      O      0.570270000000     0.462520000000     0.003930000000    -0.469676   
O20      O      0.479580000000     0.569140000000     0.001990000000    -0.465954   
O21      O      0.415920000000     0.513150000000     0.002050000000    -0.470541   
O22      O      0.506690000000     0.406440000000     0.002720000000    -0.466927   
O23      O      0.460130000000     0.459320000000     0.052280000000    -0.484171   
O24      O      0.461410000000     0.457620000000     0.953070000000    -0.485397   
O25      O      0.533630000000     0.532990000000     0.452930000000    -0.474422   
O26      O      0.534540000000     0.525900000000     0.552330000000    -0.477391   
O27      O      0.580120000000     0.477600000000     0.499540000000    -0.463568   
O28      O      0.481960000000     0.576930000000     0.503360000000    -0.464762   
O29      O      0.421450000000     0.517500000000     0.503750000000    -0.471445   
O30      O      0.519500000000     0.417330000000     0.502820000000    -0.491672   
O31      O      0.471730000000     0.469030000000     0.551960000000    -0.479113   
O32      O      0.473510000000     0.473500000000     0.452920000000    -0.483023   


