data_structure

_audit_creation_method RASPA-1.0
_audit_creation_date 2023-5-19
_audit_author_name 'Poobodin Mano'

_cell_length_a    39.0306
_cell_length_b    39.0308
_cell_length_c    39.0246
_cell_angle_alpha 90
_cell_angle_beta  90
_cell_angle_gamma 90
_cell_volume      59449.9

_symmetry_cell_setting          triclinic
_symmetry_space_group_name_Hall 'P 1'
_symmetry_space_group_name_H-M  'P 1'
_symmetry_Int_Tables_number     1

_symmetry_equiv_pos_as_xyz 'x,y,z'

loop_
_atom_site_label
_atom_site_type_symbol
_atom_site_fract_x
_atom_site_fract_y
_atom_site_fract_z
_atom_site_charge
Br1      Br     0.898420000000     0.579710000000     0.010190000000    -0.223218   
Br2      Br     0.103120000000     0.420390000000     0.992310000000    -0.234186   
Br3      Br     0.578680000000     0.896990000000     0.997040000000    -0.222883   
Br4      Br     0.420140000000     0.102690000000     0.996800000000    -0.234541   
Br5      Br     0.576630000000     0.991800000000     0.887420000000    -0.222687   
Br6      Br     0.500210000000     0.916040000000     0.387430000000    -0.235187   
Br7      Br     0.993550000000     0.578710000000     0.897790000000    -0.222766   
Br8      Br     0.919490000000     0.484830000000     0.396870000000    -0.234224   
Br9      Br     0.096270000000     0.004890000000     0.575200000000    -0.230752   
Br10     Br     0.886050000000     0.998540000000     0.576210000000    -0.229479   
Br11     Br     0.074930000000     0.595900000000     0.490060000000    -0.234622   
Br12     Br     0.979290000000     0.096830000000     0.423590000000    -0.232893   
C1       C      0.989800000000     0.061330000000     0.499140000000     0.417046   
C2       C      0.992210000000     0.924480000000     0.501070000000     0.407551   
C3       C      0.922600000000     0.992010000000     0.500630000000     0.416219   
C4       C      0.059620000000     0.994110000000     0.500240000000     0.415911   
C5       C      0.994570000000     0.424480000000     0.502220000000     0.407287   
C6       C      0.998880000000     0.561270000000     0.499860000000     0.416158   
C7       C      0.995400000000     0.491570000000     0.432520000000     0.416205   
C8       C      0.997740000000     0.494020000000     0.569380000000     0.407139   
C9       C      0.559510000000     0.993040000000     0.491540000000     0.407342   
C10      C      0.422770000000     0.993580000000     0.491130000000     0.407202   
C11      C      0.491620000000     0.991860000000     0.422900000000     0.415269   
C12      C      0.491070000000     0.994580000000     0.559780000000     0.40656    
C13      C      0.497950000000     0.999850000000     0.059840000000     0.407928   
C14      C      0.500760000000     0.999340000000     0.922960000000     0.416486   
C15      C      0.496760000000     0.068210000000     0.991540000000     0.415818   
C16      C      0.501940000000     0.931270000000     0.991850000000     0.416187   
C17      C      0.001390000000     0.497940000000     0.069300000000     0.408126   
C18      C      0.999980000000     0.502340000000     0.932490000000     0.416954   
C19      C      0.069210000000     0.497080000000     0.999960000000     0.416143   
C20      C      0.932320000000     0.503140000000     0.001630000000     0.416439   
C21      C      0.501010000000     0.431360000000     0.995810000000     0.406301   
C22      C      0.500400000000     0.568090000000     0.995940000000     0.406502   
C23      C      0.432390000000     0.499390000000     0.995820000000     0.406457   
C24      C      0.569120000000     0.500090000000     0.996270000000     0.406774   
C25      C      0.842670000000     0.534410000000     0.003400000000    -0.128421   
C26      C      0.622380000000     0.500440000000     0.966340000000     0.0743348  
C27      C      0.621800000000     0.500780000000     0.027080000000     0.0745918  
C28      C      0.658180000000     0.500900000000     0.966230000000    -0.0919896  
C29      C      0.733290000000     0.481660000000     0.974990000000    -0.0349107  
C30      C      0.769100000000     0.482120000000     0.975700000000    -0.0301983  
C31      C      0.714270000000     0.502140000000     0.997720000000    -0.0041517  
C32      C      0.657550000000     0.501340000000     0.027890000000    -0.0921599  
C33      C      0.786690000000     0.503170000000     0.999050000000    -0.0110239  
C34      C      0.843460000000     0.473280000000     0.997320000000    -0.102159   
C35      C      0.767670000000     0.523740000000     0.021680000000    -0.0299507  
C36      C      0.879160000000     0.474130000000     0.998260000000     0.081346   
C37      C      0.878570000000     0.534730000000     0.004240000000     0.19141    
C38      C      0.731880000000     0.523200000000     0.021050000000    -0.0341446  
C39      C      0.676210000000     0.501430000000     0.997250000000     0.0511869  
C40      C      0.824760000000     0.503620000000     0.999870000000     0.07108    
C41      C      0.158870000000     0.466060000000     0.995640000000    -0.129107   
C42      C      0.379350000000     0.498640000000     0.965520000000     0.0742293  
C43      C      0.379500000000     0.499540000000     0.026260000000     0.0743939  
C44      C      0.343550000000     0.498360000000     0.965170000000    -0.0920806  
C45      C      0.268950000000     0.519400000000     0.019270000000    -0.0349982  
C46      C      0.233150000000     0.518970000000     0.019710000000    -0.0302348  
C47      C      0.287240000000     0.498540000000     0.996290000000    -0.00419667 
C48      C      0.343750000000     0.499390000000     0.026830000000    -0.0921124  
C49      C      0.214820000000     0.497590000000     0.997260000000    -0.0112966  
C50      C      0.158050000000     0.527270000000     0.000850000000    -0.101792   
C51      C      0.233110000000     0.476780000000     0.974230000000    -0.0299847  
C52      C      0.122360000000     0.526270000000     0.001400000000     0.0817434  
C53      C      0.122960000000     0.465580000000     0.996320000000     0.190862   
C54      C      0.268910000000     0.477290000000     0.973700000000    -0.034588   
C55      C      0.325300000000     0.498790000000     0.996070000000     0.0509626  
C56      C      0.176770000000     0.496970000000     0.997920000000     0.0709292  
C57      C      0.532660000000     0.841470000000     0.995130000000    -0.128663   
C58      C      0.499550000000     0.620950000000     0.965430000000     0.0745328  
C59      C      0.500730000000     0.621180000000     0.026160000000     0.0744577  
C60      C      0.499360000000     0.656720000000     0.964820000000    -0.0920533  
C61      C      0.478920000000     0.731490000000     0.972620000000    -0.0349103  
C62      C      0.479270000000     0.767290000000     0.972160000000    -0.0301261  
C63      C      0.500100000000     0.713250000000     0.995340000000    -0.00412643 
C64      C      0.500710000000     0.656970000000     0.026480000000    -0.0920952  
C65      C      0.500940000000     0.785660000000     0.994300000000    -0.0112     
C66      C      0.471370000000     0.842540000000     0.991190000000    -0.102228   
C67      C      0.522060000000     0.767420000000     0.017080000000    -0.0298567  
C68      C      0.472490000000     0.878240000000     0.990680000000     0.0813257  
C69      C      0.533270000000     0.877370000000     0.994450000000     0.191239   
C70      C      0.521590000000     0.731620000000     0.017650000000    -0.0342523  
C71      C      0.499990000000     0.675190000000     0.995570000000     0.0511649  
C72      C      0.501640000000     0.823710000000     0.993530000000     0.0712514  
C73      C      0.466280000000     0.158110000000     0.994340000000    -0.12922    
C74      C      0.500040000000     0.378200000000     0.025890000000     0.0741843  
C75      C      0.501650000000     0.378580000000     0.965160000000     0.0742556  
C76      C      0.499650000000     0.342400000000     0.026100000000    -0.092036   
C77      C      0.520940000000     0.267820000000     0.972160000000    -0.0350107  
C78      C      0.520230000000     0.232020000000     0.971620000000    -0.0304677  
C79      C      0.499800000000     0.286210000000     0.994790000000    -0.00431678 
C80      C      0.501430000000     0.342820000000     0.964460000000    -0.0921728  
C81      C      0.498260000000     0.213820000000     0.993590000000    -0.0113228  
C82      C      0.527600000000     0.156830000000     0.990830000000    -0.10184    
C83      C      0.477140000000     0.232210000000     0.016240000000    -0.0302317  
C84      C      0.526360000000     0.121140000000     0.990450000000     0.0814615  
C85      C      0.465560000000     0.122210000000     0.993810000000     0.190716   
C86      C      0.477960000000     0.268010000000     0.016890000000    -0.0345766  
C87      C      0.500350000000     0.324270000000     0.995140000000     0.0509182  
C88      C      0.497370000000     0.175770000000     0.992880000000     0.0708196  
C89      C      0.529910000000     0.996520000000     0.832620000000    -0.128332   
C90      C      0.491280000000     0.025880000000     0.612240000000     0.0744213  
C91      C      0.492120000000     0.965160000000     0.613280000000     0.0747042  
C92      C      0.492060000000     0.026960000000     0.648020000000    -0.0918339  
C93      C      0.474050000000     0.020110000000     0.723660000000    -0.0347139  
C94      C      0.475340000000     0.020630000000     0.759460000000    -0.0303123  
C95      C      0.494470000000     0.997090000000     0.704930000000    -0.00412787 
C96      C      0.493050000000     0.965320000000     0.649050000000    -0.0918431  
C97      C      0.497210000000     0.998270000000     0.777330000000    -0.0109202  
C98      C      0.468690000000     0.001200000000     0.834760000000    -0.101519   
C99      C      0.517680000000     0.975300000000     0.758590000000    -0.0300822  
C100     C      0.470420000000     0.001190000000     0.870450000000     0.0818686  
C101     C      0.531120000000     0.996640000000     0.868520000000     0.190871   
C102     C      0.516270000000     0.974680000000     0.722810000000    -0.0341493  
C103     C      0.493100000000     0.996460000000     0.666880000000     0.0511888  
C104     C      0.498620000000     0.998780000000     0.815380000000     0.0708919  
C105     C      0.495490000000     0.962710000000     0.332620000000    -0.12954    
C106     C      0.466560000000     0.999020000000     0.112210000000     0.0763818  
C107     C      0.527280000000     0.000040000000     0.113390000000     0.0766269  
C108     C      0.465420000000     0.998560000000     0.147980000000    -0.0909584  
C109     C      0.471600000000     0.017620000000     0.223420000000    -0.0351359  
C110     C      0.470920000000     0.016540000000     0.259220000000    -0.0299831  
C111     C      0.495190000000     0.997610000000     0.204950000000    -0.00360422 
C112     C      0.527060000000     0.999440000000     0.149160000000    -0.0910131  
C113     C      0.493680000000     0.995290000000     0.277320000000    -0.011687   
C114     C      0.489730000000     0.023840000000     0.334670000000    -0.1027     
C115     C      0.517250000000     0.975280000000     0.258840000000    -0.0297771  
C116     C      0.489480000000     0.022140000000     0.370360000000     0.0805425  
C117     C      0.495070000000     0.961520000000     0.368500000000     0.190517   
C118     C      0.518040000000     0.976480000000     0.223070000000    -0.034586   
C119     C      0.495890000000     0.998640000000     0.166910000000     0.0516773  
C120     C      0.492860000000     0.993940000000     0.315350000000     0.0708267  
C121     C      0.998160000000     0.532560000000     0.842490000000    -0.128488   
C122     C      0.968140000000     0.496560000000     0.622700000000     0.0751392  
C123     C      0.028830000000     0.494060000000     0.621960000000     0.0755915  
C124     C      0.968150000000     0.497690000000     0.658450000000    -0.0917991  
C125     C      0.022040000000     0.477240000000     0.733280000000    -0.0345803  
C126     C      0.022210000000     0.478270000000     0.769080000000    -0.0301626  
C127     C      0.999640000000     0.498260000000     0.714470000000    -0.00389056 
C128     C      0.029760000000     0.495050000000     0.657730000000    -0.0913096  
C129     C      0.000090000000     0.500440000000     0.786870000000    -0.0108079  
C130     C      0.001830000000     0.471250000000     0.843980000000    -0.101591   
C131     C      0.977800000000     0.521560000000     0.768050000000    -0.02996    
C132     C      0.001520000000     0.472570000000     0.879670000000     0.0823017  
C133     C      0.997920000000     0.533350000000     0.878390000000     0.191109   
C134     C      0.977540000000     0.520450000000     0.732270000000    -0.0340558  
C135     C      0.999190000000     0.496970000000     0.676430000000     0.0515495  
C136     C      0.000140000000     0.501430000000     0.824920000000     0.0712341  
C137     C      0.966290000000     0.489550000000     0.342160000000    -0.129007   
C138     C      0.000030000000     0.465990000000     0.121340000000     0.0763979  
C139     C      0.003130000000     0.526620000000     0.123180000000     0.0765534  
C140     C      0.999830000000     0.464460000000     0.157100000000    -0.0911466  
C141     C      0.978650000000     0.470990000000     0.231770000000    -0.0341253  
C142     C      0.977730000000     0.470280000000     0.267560000000    -0.0297887  
C143     C      0.000730000000     0.493580000000     0.214450000000    -0.00342075 
C144     C      0.003060000000     0.526000000000     0.158970000000    -0.090832   
C145     C      0.998920000000     0.492090000000     0.286880000000    -0.0109639  
C146     C      0.027570000000     0.493290000000     0.344350000000    -0.10147    
C147     C      0.021170000000     0.514510000000     0.269570000000    -0.0298316  
C148     C      0.025840000000     0.492930000000     0.380040000000     0.0819533  
C149     C      0.965090000000     0.489250000000     0.378050000000     0.191237   
C150     C      0.022020000000     0.515290000000     0.233770000000    -0.034521   
C151     C      0.001310000000     0.494680000000     0.176390000000     0.0519536  
C152     C      0.997600000000     0.491640000000     0.324940000000     0.0711325  
C153     C      0.150320000000     0.998220000000     0.527910000000    -0.129161   
C154     C      0.369580000000     0.963540000000     0.491320000000     0.0752862  
C155     C      0.369990000000     0.024270000000     0.490730000000     0.0747694  
C156     C      0.333780000000     0.963340000000     0.491490000000    -0.0912015  
C157     C      0.258510000000     0.971380000000     0.472500000000    -0.0348794  
C158     C      0.222700000000     0.971570000000     0.473620000000    -0.030025   
C159     C      0.277580000000     0.994630000000     0.492340000000    -0.00391204 
C160     C      0.334230000000     0.024990000000     0.490990000000    -0.0919664  
C161     C      0.205170000000     0.994900000000     0.494750000000    -0.0112341  
C162     C      0.147360000000     0.991290000000     0.466940000000    -0.101806   
C163     C      0.224260000000     0.018230000000     0.514470000000    -0.0298892  
C164     C      0.111680000000     0.991410000000     0.469140000000     0.0815333  
C165     C      0.114460000000     0.998240000000     0.529600000000     0.190919   
C166     C      0.260020000000     0.018120000000     0.513260000000    -0.0344302  
C167     C      0.315650000000     0.994300000000     0.491460000000     0.0512078  
C168     C      0.167130000000     0.994740000000     0.496510000000     0.0711441  
C169     C      0.831950000000     0.994300000000     0.528740000000    -0.128966   
C170     C      0.612550000000     0.023270000000     0.491680000000     0.0752506  
C171     C      0.612420000000     0.962530000000     0.491660000000     0.0758812  
C172     C      0.648320000000     0.023660000000     0.492070000000    -0.0917744  
C173     C      0.723530000000     0.969750000000     0.472850000000    -0.0346578  
C174     C      0.759330000000     0.969610000000     0.473970000000    -0.0298971  
C175     C      0.704660000000     0.992750000000     0.493170000000    -0.003769   
C176     C      0.648210000000     0.962000000000     0.491900000000    -0.0909949  
C177     C      0.777040000000     0.992330000000     0.495600000000    -0.0110157  
C178     C      0.834760000000     0.989250000000     0.467580000000    -0.10149    
C179     C      0.758170000000     0.015370000000     0.515840000000    -0.0297001  
C180     C      0.870440000000     0.989370000000     0.469690000000     0.0821192  
C181     C      0.867810000000     0.994260000000     0.530350000000     0.19125    
C182     C      0.722400000000     0.015620000000     0.514600000000    -0.034192   
C183     C      0.666610000000     0.992800000000     0.492250000000     0.0515312  
C184     C      0.815070000000     0.991880000000     0.497290000000     0.0713854  
C185     C      0.029180000000     0.651220000000     0.497260000000    -0.129049   
C186     C      0.993020000000     0.871690000000     0.531840000000     0.0766532  
C187     C      0.993400000000     0.871350000000     0.471090000000     0.0756371  
C188     C      0.993820000000     0.835900000000     0.532480000000    -0.0902789  
C189     C      0.975460000000     0.760390000000     0.524780000000    -0.0346583  
C190     C      0.976260000000     0.724580000000     0.524480000000    -0.0296196  
C191     C      0.995680000000     0.779340000000     0.501780000000    -0.00332634 
C192     C      0.994290000000     0.835610000000     0.470810000000    -0.0914753  
C193     C      0.997410000000     0.706920000000     0.501270000000    -0.011104   
C194     C      0.968100000000     0.649850000000     0.503690000000    -0.10189    
C195     C      0.017740000000     0.725890000000     0.478380000000    -0.0295468  
C196     C      0.969300000000     0.614160000000     0.502970000000     0.0818022  
C197     C      0.029850000000     0.615320000000     0.496630000000     0.191183   
C198     C      0.016870000000     0.761670000000     0.478610000000    -0.0343056  
C199     C      0.994560000000     0.817400000000     0.501720000000     0.0516968  
C200     C      0.998230000000     0.668850000000     0.500840000000     0.0712333  
C201     C      0.985790000000     0.151600000000     0.470070000000    -0.128946   
C202     C      0.962670000000     0.372410000000     0.503230000000     0.0759667  
C203     C      0.023380000000     0.370660000000     0.502950000000     0.0752422  
C204     C      0.961190000000     0.336650000000     0.503590000000    -0.0911361  
C205     C      0.966830000000     0.261750000000     0.482880000000    -0.0341732  
C206     C      0.966290000000     0.225960000000     0.482280000000    -0.0296668  
C207     C      0.990450000000     0.279360000000     0.503590000000    -0.00372436 
C208     C      0.022820000000     0.334890000000     0.503410000000    -0.0914866  
C209     C      0.989300000000     0.206940000000     0.502430000000    -0.0108116  
C210     C      0.992390000000     0.149550000000     0.531120000000    -0.100712   
C211     C      0.012700000000     0.224540000000     0.523410000000    -0.0299563  
C212     C      0.992250000000     0.113850000000     0.529460000000     0.0832733  
C213     C      0.985750000000     0.115730000000     0.468920000000     0.19189    
C214     C      0.013320000000     0.260340000000     0.523930000000    -0.0346053  
C215     C      0.991490000000     0.317420000000     0.503650000000     0.0515144  
C216     C      0.989160000000     0.168880000000     0.501230000000     0.0715396  
Cu1      Cu     0.991020000000     0.992400000000     0.468750000000     0.857942   
Cu2      Cu     0.991200000000     0.993290000000     0.531730000000     0.874487   
Cu3      Cu     0.965140000000     0.493790000000     0.501530000000     0.861109   
Cu4      Cu     0.028160000000     0.491830000000     0.500520000000     0.860192   
Cu5      Cu     0.491030000000     0.961730000000     0.491990000000     0.862954   
Cu6      Cu     0.491250000000     0.024850000000     0.490800000000     0.847048   
Cu7      Cu     0.530780000000     0.000880000000     0.992090000000     0.873958   
Cu8      Cu     0.467850000000     0.998610000000     0.990850000000     0.857811   
Cu9      Cu     0.999400000000     0.468650000000     0.999960000000     0.858335   
Cu10     Cu     0.002130000000     0.531540000000     0.001940000000     0.874053   
Cu11     Cu     0.500650000000     0.499700000000     0.027560000000     0.849777   
Cu12     Cu     0.500860000000     0.499750000000     0.964350000000     0.849242   
H1       H      0.608460000000     0.500650000000     0.051450000000     0.0278107  
H2       H      0.892170000000     0.449670000000     0.996140000000     0.0287012  
H3       H      0.717990000000     0.539540000000     0.038670000000     0.0420819  
H4       H      0.783020000000     0.466220000000     0.957710000000     0.0403806  
H5       H      0.830610000000     0.448790000000     0.995020000000     0.0587249  
H6       H      0.720510000000     0.464920000000     0.956930000000     0.0407729  
H7       H      0.828750000000     0.558370000000     0.005180000000     0.084456   
H8       H      0.670460000000     0.501270000000     0.052460000000     0.0556922  
H9       H      0.671590000000     0.501320000000     0.941940000000     0.0558684  
H10      H      0.780440000000     0.539980000000     0.040200000000     0.0435491  
H11      H      0.609470000000     0.500200000000     0.941740000000     0.0277092  
H12      H      0.392680000000     0.499900000000     0.050720000000     0.0276674  
H13      H      0.109340000000     0.550710000000     0.003670000000     0.0311944  
H14      H      0.282240000000     0.460700000000     0.955910000000     0.0417149  
H15      H      0.219830000000     0.535090000000     0.037960000000     0.0401159  
H16      H      0.170870000000     0.551840000000     0.002290000000     0.0597002  
H17      H      0.282300000000     0.536310000000     0.036760000000     0.040789   
H18      H      0.172820000000     0.442130000000     0.993710000000     0.0833671  
H19      H      0.330670000000     0.499290000000     0.051320000000     0.0555015  
H20      H      0.330290000000     0.498280000000     0.940790000000     0.0555671  
H21      H      0.219730000000     0.460290000000     0.956360000000     0.0431738  
H22      H      0.392420000000     0.498420000000     0.941010000000     0.0275985  
H23      H      0.501190000000     0.608140000000     0.050690000000     0.0276917  
H24      H      0.448070000000     0.891360000000     0.988970000000     0.0287325  
H25      H      0.538440000000     0.718320000000     0.035240000000     0.0421183  
H26      H      0.462900000000     0.780590000000     0.954120000000     0.0404775  
H27      H      0.446730000000     0.829800000000     0.990230000000     0.0587986  
H28      H      0.461830000000     0.718080000000     0.955340000000     0.0409201  
H29      H      0.556570000000     0.827420000000     0.996500000000     0.0844715  
H30      H      0.500830000000     0.670260000000     0.050840000000     0.0556854  
H31      H      0.499220000000     0.669780000000     0.940330000000     0.0560185  
H32      H      0.538780000000     0.780840000000     0.034710000000     0.0434572  
H33      H      0.499190000000     0.607750000000     0.940990000000     0.0278744  
H34      H      0.502330000000     0.391840000000     0.940770000000     0.0275898  
H35      H      0.550750000000     0.107940000000     0.988900000000     0.0314599  
H36      H      0.461140000000     0.281440000000     0.034400000000     0.0415688  
H37      H      0.536610000000     0.218610000000     0.953680000000     0.0407291  
H38      H      0.552290000000     0.169480000000     0.990000000000     0.0596094  
H39      H      0.538290000000     0.281090000000     0.955040000000     0.0408379  
H40      H      0.442410000000     0.172250000000     0.995590000000     0.0832973  
H41      H      0.501590000000     0.329820000000     0.939930000000     0.05552    
H42      H      0.499200000000     0.329050000000     0.050430000000     0.0553738  
H43      H      0.460180000000     0.218920000000     0.033730000000     0.0428759  
H44      H      0.499550000000     0.391180000000     0.050450000000     0.0275831  
H45      H      0.492110000000     0.940450000000     0.600590000000     0.0289188  
H46      H      0.446250000000     0.003130000000     0.884020000000     0.0309675  
H47      H      0.532580000000     0.956870000000     0.709130000000     0.0423518  
H48      H      0.459470000000     0.038820000000     0.773150000000     0.0408484  
H49      H      0.443850000000     0.002600000000     0.822460000000     0.0596938  
H50      H      0.456760000000     0.037490000000     0.710660000000     0.0410849  
H51      H      0.553560000000     0.994850000000     0.818150000000     0.0840471  
H52      H      0.493380000000     0.941130000000     0.662640000000     0.0562399  
H53      H      0.492420000000     0.051610000000     0.660770000000     0.0556781  
H54      H      0.534530000000     0.957500000000     0.771600000000     0.0441722  
H55      H      0.490730000000     0.050130000000     0.598690000000     0.0276812  
H56      H      0.552000000000     0.000680000000     0.100740000000     0.0324578  
H57      H      0.487030000000     0.046270000000     0.383890000000     0.0272069  
H58      H      0.536300000000     0.960520000000     0.209580000000     0.0430249  
H59      H      0.452280000000     0.032050000000     0.272720000000     0.0400026  
H60      H      0.487980000000     0.048630000000     0.322320000000     0.0582947  
H61      H      0.453870000000     0.034390000000     0.210210000000     0.0418701  
H62      H      0.497640000000     0.939080000000     0.318180000000     0.0834232  
H63      H      0.551220000000     0.999950000000     0.162820000000     0.0573658  
H64      H      0.440760000000     0.997590000000     0.160690000000     0.0570638  
H65      H      0.535350000000     0.958920000000     0.272060000000     0.0433379  
H66      H      0.442340000000     0.998720000000     0.098610000000     0.0316704  
H67      H      0.053110000000     0.492760000000     0.608530000000     0.0306634  
H68      H      0.002940000000     0.448220000000     0.892970000000     0.0314541  
H69      H      0.960220000000     0.537220000000     0.718530000000     0.0424573  
H70      H      0.039910000000     0.461900000000     0.782830000000     0.0411448  
H71      H      0.002940000000     0.446520000000     0.831410000000     0.0597804  
H72      H      0.039150000000     0.459640000000     0.720340000000     0.041362   
H73      H      0.997010000000     0.556390000000     0.828280000000     0.084252   
H74      H      0.054340000000     0.494820000000     0.670590000000     0.0569875  
H75      H      0.943900000000     0.498700000000     0.671910000000     0.0561015  
H76      H      0.960200000000     0.538680000000     0.781000000000     0.0440331  
H77      H      0.943500000000     0.497100000000     0.609890000000     0.028848   
H78      H      0.004310000000     0.551460000000     0.110810000000     0.0324479  
H79      H      0.050020000000     0.494370000000     0.393640000000     0.0314668  
H80      H      0.039570000000     0.532740000000     0.221220000000     0.0418456  
H81      H      0.960570000000     0.452450000000     0.280110000000     0.0433491  
H82      H      0.052430000000     0.494490000000     0.332060000000     0.0597968  
H83      H      0.961690000000     0.454160000000     0.217660000000     0.0425021  
H84      H      0.942610000000     0.488460000000     0.327700000000     0.083653   
H85      H      0.003820000000     0.550010000000     0.172850000000     0.0577114  
H86      H      0.998890000000     0.439660000000     0.169520000000     0.057104   
H87      H      0.037610000000     0.531840000000     0.283700000000     0.0412935  
H88      H      0.998890000000     0.441950000000     0.107470000000     0.0311999  
H89      H      0.383280000000     0.048660000000     0.490340000000     0.0276658  
H90      H      0.097750000000     0.988600000000     0.445260000000     0.030107   
H91      H      0.273950000000     0.036140000000     0.529110000000     0.0416431  
H92      H      0.208740000000     0.953100000000     0.458330000000     0.0405011  
H93      H      0.159340000000     0.988920000000     0.442010000000     0.0594587  
H94      H      0.271250000000     0.953190000000     0.455860000000     0.0418123  
H95      H      0.165070000000     0.000690000000     0.551310000000     0.083706   
H96      H      0.321250000000     0.049510000000     0.490490000000     0.0555459  
H97      H      0.320440000000     0.939010000000     0.492240000000     0.0567907  
H98      H      0.211530000000     0.036780000000     0.530720000000     0.0432345  
H99      H      0.382540000000     0.938980000000     0.491570000000     0.030757   
H100     H      0.599240000000     0.938080000000     0.491610000000     0.0316736  
H101     H      0.884290000000     0.987390000000     0.445690000000     0.0312066  
H102     H      0.708620000000     0.033440000000     0.530810000000     0.0421141  
H103     H      0.773140000000     0.951380000000     0.458260000000     0.0408011  
H104     H      0.822710000000     0.987630000000     0.442620000000     0.0600782  
H105     H      0.710610000000     0.952030000000     0.455830000000     0.0422566  
H106     H      0.817220000000     0.995950000000     0.552230000000     0.084022   
H107     H      0.661340000000     0.937550000000     0.492410000000     0.0572184  
H108     H      0.661540000000     0.048060000000     0.491900000000     0.0559936  
H109     H      0.771070000000     0.033440000000     0.532490000000     0.0438426  
H110     H      0.599480000000     0.047780000000     0.491520000000     0.0279836  
H111     H      0.993160000000     0.884320000000     0.446530000000     0.0291985  
H112     H      0.945000000000     0.600900000000     0.505360000000     0.0301814  
H113     H      0.033030000000     0.775500000000     0.460800000000     0.042286   
H114     H      0.960530000000     0.710710000000     0.542660000000     0.0408699  
H115     H      0.943490000000     0.662470000000     0.506030000000     0.0596979  
H116     H      0.958630000000     0.773220000000     0.542730000000     0.0426026  
H117     H      0.052990000000     0.665360000000     0.495200000000     0.0835552  
H118     H      0.994350000000     0.822340000000     0.446430000000     0.0563603  
H119     H      0.994360000000     0.822840000000     0.556970000000     0.0583208  
H120     H      0.034050000000     0.713070000000     0.459940000000     0.0433639  
H121     H      0.992640000000     0.884970000000     0.556240000000     0.0340878  
H122     H      0.048230000000     0.383070000000     0.502600000000     0.0289211  
H123     H      0.994930000000     0.100290000000     0.553560000000     0.0349252  
H124     H      0.031590000000     0.273140000000     0.540440000000     0.0413835  
H125     H      0.947690000000     0.213170000000     0.466130000000     0.0438148  
H126     H      0.994660000000     0.161900000000     0.555880000000     0.0611868  
H127     H      0.949080000000     0.275630000000     0.466680000000     0.0429865  
H128     H      0.983480000000     0.166010000000     0.446440000000     0.0837826  
H129     H      0.046870000000     0.321040000000     0.503010000000     0.0562087  
H130     H      0.936410000000     0.324180000000     0.504170000000     0.0570654  
H131     H      0.030940000000     0.210630000000     0.539030000000     0.0413831  
H132     H      0.938580000000     0.386230000000     0.503250000000     0.0314942  
N1       N      0.896990000000     0.504430000000     0.001490000000    -0.204882   
N2       N      0.604290000000     0.500410000000     0.996540000000    -0.19337    
N3       N      0.104540000000     0.495860000000     0.999230000000    -0.205119   
N4       N      0.397220000000     0.499200000000     0.995840000000    -0.19337    
N5       N      0.503010000000     0.895930000000     0.992300000000    -0.204859   
N6       N      0.500220000000     0.603270000000     0.995860000000    -0.193287   
N7       N      0.495770000000     0.103560000000     0.991890000000    -0.205035   
N8       N      0.500940000000     0.396180000000     0.995640000000    -0.193268   
N9       N      0.501210000000     0.999050000000     0.887600000000    -0.204659   
N10      N      0.491410000000     0.995210000000     0.594960000000    -0.193128   
N11      N      0.492050000000     0.991400000000     0.387540000000    -0.205627   
N12      N      0.497260000000     0.999690000000     0.095010000000    -0.192105   
N13      N      0.999760000000     0.503190000000     0.897140000000    -0.2047     
N14      N      0.998250000000     0.494840000000     0.604540000000    -0.192792   
N15      N      0.995010000000     0.491170000000     0.397160000000    -0.205007   
N16      N      0.001550000000     0.496850000000     0.104470000000    -0.1921     
N17      N      0.094970000000     0.994660000000     0.500080000000    -0.20507    
N18      N      0.387590000000     0.993780000000     0.491030000000    -0.192845   
N19      N      0.887230000000     0.991860000000     0.500660000000    -0.20476    
N20      N      0.594690000000     0.992940000000     0.491610000000    -0.192632   
N21      N      0.999770000000     0.596620000000     0.499710000000    -0.20517    
N22      N      0.992860000000     0.889310000000     0.501370000000    -0.19216    
N23      N      0.989200000000     0.096680000000     0.498750000000    -0.204385   
N24      N      0.993530000000     0.389320000000     0.502820000000    -0.19253    
O1       O      0.990090000000     0.044310000000     0.471090000000    -0.373853   
O2       O      0.991920000000     0.940580000000     0.472370000000    -0.396895   
O3       O      0.939010000000     0.991590000000     0.472050000000    -0.392508   
O4       O      0.043060000000     0.993310000000     0.471740000000    -0.393652   
O5       O      0.043040000000     0.994050000000     0.528550000000    -0.375209   
O6       O      0.939330000000     0.992560000000     0.528850000000    -0.37471    
O7       O      0.991950000000     0.941230000000     0.529440000000    -0.389626   
O8       O      0.990420000000     0.045240000000     0.527890000000    -0.38905    
O9       O      0.966540000000     0.441760000000     0.502360000000    -0.39242    
O10      O      0.969890000000     0.545630000000     0.500650000000    -0.394547   
O11      O      0.967390000000     0.492820000000     0.449580000000    -0.374068   
O12      O      0.968970000000     0.494590000000     0.553380000000    -0.397039   
O13      O      0.026010000000     0.492790000000     0.552540000000    -0.393431   
O14      O      0.024160000000     0.491090000000     0.448600000000    -0.393313   
O15      O      0.026660000000     0.543810000000     0.499700000000    -0.374279   
O16      O      0.023580000000     0.440020000000     0.501480000000    -0.396471   
O17      O      0.543000000000     0.964560000000     0.492040000000    -0.392369   
O18      O      0.439060000000     0.964980000000     0.491740000000    -0.393632   
O19      O      0.491270000000     0.963870000000     0.440030000000    -0.374601   
O20      O      0.490960000000     0.965750000000     0.543880000000    -0.396828   
O21      O      0.491090000000     0.022810000000     0.542830000000    -0.39644    
O22      O      0.491430000000     0.020680000000     0.438890000000    -0.397326   
O23      O      0.439320000000     0.022030000000     0.490680000000    -0.396863   
O24      O      0.543180000000     0.021620000000     0.491040000000    -0.396238   
O25      O      0.526780000000     0.000930000000     0.043980000000    -0.392618   
O26      O      0.528730000000     0.000480000000     0.940090000000    -0.371572   
O27      O      0.525810000000     0.052670000000     0.991820000000    -0.395355   
O28      O      0.529610000000     0.948900000000     0.992340000000    -0.371111   
O29      O      0.472870000000     0.946780000000     0.991010000000    -0.396828   
O30      O      0.469050000000     0.050630000000     0.990930000000    -0.373835   
O31      O      0.471970000000     0.998680000000     0.938960000000    -0.394283   
O32      O      0.469770000000     0.998770000000     0.042850000000    -0.392185   
O33      O      0.999970000000     0.469970000000     0.052000000000    -0.392949   
O34      O      0.999120000000     0.473380000000     0.948150000000    -0.393957   
O35      O      0.051430000000     0.469500000000     0.999460000000    -0.373924   
O36      O      0.947640000000     0.473990000000     0.000510000000    -0.39726    
O37      O      0.950120000000     0.530700000000     0.002430000000    -0.370984   
O38      O      0.053880000000     0.526210000000     0.001190000000    -0.395306   
O39      O      0.001420000000     0.530100000000     0.949940000000    -0.371762   
O40      O      0.002550000000     0.526940000000     0.053770000000    -0.392897   
O41      O      0.500760000000     0.447700000000     0.024410000000    -0.396157   
O42      O      0.500530000000     0.551700000000     0.024510000000    -0.396165   
O43      O      0.448770000000     0.499570000000     0.024370000000    -0.397433   
O44      O      0.552550000000     0.499880000000     0.024710000000    -0.397417   
O45      O      0.552860000000     0.500090000000     0.967630000000    -0.396169   
O46      O      0.448850000000     0.499370000000     0.967280000000    -0.396121   
O47      O      0.500460000000     0.551650000000     0.967420000000    -0.397168   
O48      O      0.501210000000     0.447860000000     0.967320000000    -0.397337   


