data_structure

_audit_creation_method RASPA-1.0
_audit_creation_date 2023-6-4
_audit_author_name 'Poobodin Mano'

_cell_length_a    26.654
_cell_length_b    27.1063
_cell_length_c    38.5682
_cell_angle_alpha 89.9989
_cell_angle_beta  89.9989
_cell_angle_gamma 93.6516
_cell_volume      27808.6

_symmetry_cell_setting          triclinic
_symmetry_space_group_name_Hall 'P 1'
_symmetry_space_group_name_H-M  'P 1'
_symmetry_Int_Tables_number     1

_symmetry_equiv_pos_as_xyz 'x,y,z'

loop_
_atom_site_label
_atom_site_type_symbol
_atom_site_fract_x
_atom_site_fract_y
_atom_site_fract_z
_atom_site_charge
Br1      Br     0.599340000000     0.562780000000     0.605750000000    -0.228316   
Br2      Br     0.408040000000     0.401630000000     0.408330000000    -0.230987   
Br3      Br     0.089870000000     0.870580000000     0.419500000000    -0.216833   
Br4      Br     0.927250000000     0.857250000000     0.416360000000    -0.218128   
Br5      Br     0.685240000000     0.472200000000     0.518530000000    -0.22534    
Br6      Br     0.353430000000     0.482620000000     0.510040000000    -0.271977   
Br7      Br     0.104740000000     0.888100000000     0.923340000000    -0.224294   
Br8      Br     0.907450000000     0.858280000000     0.930300000000    -0.224095   
Br9      Br     0.686510000000     0.478430000000     0.013690000000    -0.238276   
Br10     Br     0.500600000000     0.349270000000     0.003080000000    -0.287752   
C1       C      0.933640000000     0.063480000000     0.002370000000     0.398223   
C2       C      0.061840000000     0.917300000000     0.000060000000     0.408393   
C3       C      0.920080000000     0.924670000000     0.000050000000     0.425637   
C4       C      0.075630000000     0.055520000000     0.002630000000     0.415591   
C5       C      0.066130000000     0.919070000000     0.495040000000     0.40822    
C6       C      0.930380000000     0.058560000000     0.495920000000     0.397978   
C7       C      0.071260000000     0.059510000000     0.502170000000     0.414654   
C8       C      0.925710000000     0.919030000000     0.488230000000     0.425643   
C9       C      0.498560000000     0.492200000000     0.940630000000     0.475738   
C10      C      0.495020000000     0.486620000000     0.073000000000     0.475239   
C11      C      0.569910000000     0.430390000000     0.006730000000     0.438882   
C12      C      0.430840000000     0.555850000000     0.007100000000     0.465308   
C13      C      0.491480000000     0.483190000000     0.440720000000     0.485714   
C14      C      0.505860000000     0.493540000000     0.572930000000     0.484215   
C15      C      0.569650000000     0.428070000000     0.505380000000     0.474115   
C16      C      0.432200000000     0.554860000000     0.506820000000     0.436995   
C17      C      0.543300000000     0.525490000000     0.663140000000    -0.130233   
C18      C      0.467280000000     0.462820000000     0.886040000000     0.0794224  
C19      C      0.533690000000     0.525240000000     0.888070000000     0.0796141  
C20      C      0.467970000000     0.463680000000     0.849830000000    -0.094303   
C21      C      0.458880000000     0.495680000000     0.774590000000    -0.0352307  
C22      C      0.460000000000     0.496160000000     0.738370000000    -0.0306484  
C23      C      0.503760000000     0.497110000000     0.793780000000    -0.0048237  
C24      C      0.535620000000     0.526810000000     0.851880000000    -0.0944386  
C25      C      0.506030000000     0.497790000000     0.720420000000    -0.0116263  
C26      C      0.471850000000     0.467080000000     0.663280000000    -0.104105   
C27      C      0.550950000000     0.499530000000     0.739660000000    -0.0301678  
C28      C      0.472970000000     0.466620000000     0.627170000000     0.0849856  
C29      C      0.543980000000     0.524220000000     0.626770000000     0.193028   
C30      C      0.549820000000     0.499320000000     0.775920000000    -0.0344682  
C31      C      0.502450000000     0.495880000000     0.832290000000     0.0527792  
C32      C      0.507010000000     0.496960000000     0.681810000000     0.071477   
C33      C      0.456550000000     0.447600000000     0.350650000000    -0.130967   
C34      C      0.525560000000     0.516730000000     0.127580000000     0.0793838  
C35      C      0.461770000000     0.451720000000     0.125560000000     0.0791756  
C36      C      0.525190000000     0.515590000000     0.163780000000    -0.0941288  
C37      C      0.536590000000     0.484850000000     0.238890000000    -0.0351674  
C38      C      0.535900000000     0.484240000000     0.275110000000    -0.0304995  
C39      C      0.491520000000     0.480200000000     0.219900000000    -0.00472631 
C40      C      0.460340000000     0.449690000000     0.161760000000    -0.0939571  
C41      C      0.490110000000     0.479030000000     0.293270000000    -0.0119942  
C42      C      0.521930000000     0.512600000000     0.350210000000    -0.104916   
C43      C      0.445030000000     0.473900000000     0.274290000000    -0.0303221  
C44      C      0.521300000000     0.512800000000     0.386330000000     0.0848717  
C45      C      0.456470000000     0.448400000000     0.387040000000     0.193332   
C46      C      0.445730000000     0.474440000000     0.238020000000    -0.0348196  
C47      C      0.492340000000     0.481800000000     0.181360000000     0.0524873  
C48      C      0.489500000000     0.479680000000     0.331860000000     0.0717257  
C49      C      0.151180000000     0.822570000000     0.466970000000    -0.124328   
C50      C      0.346860000000     0.574810000000     0.506140000000     0.0429908  
C51      C      0.410070000000     0.639820000000     0.505460000000     0.0744554  
C52      C      0.308860000000     0.608470000000     0.504980000000    -0.0692355  
C53      C      0.239800000000     0.690390000000     0.482230000000    -0.0356694  
C54      C      0.204090000000     0.726400000000     0.480580000000    -0.0295867  
C55      C      0.282620000000     0.697110000000     0.503540000000    -1.28628e-05
C56      C      0.373410000000     0.674850000000     0.504740000000    -0.0856356  
C57      C      0.209690000000     0.769970000000     0.500560000000    -0.0100435  
C58      C      0.155730000000     0.832470000000     0.528560000000    -0.0985704  
C59      C      0.252120000000     0.776290000000     0.522250000000    -0.0302916  
C60      C      0.120290000000     0.868500000000     0.526380000000     0.0781552  
C61      C      0.116010000000     0.859270000000     0.465310000000     0.187921   
C62      C      0.288110000000     0.740620000000     0.523570000000    -0.0364763  
C63      C      0.321930000000     0.659640000000     0.504420000000     0.0419036  
C64      C      0.171760000000     0.808750000000     0.498680000000     0.0671374  
C65      C      0.840350000000     0.820580000000     0.452130000000    -0.133562   
C66      C      0.583820000000     0.618450000000     0.519640000000     0.0878171  
C67      C      0.617880000000     0.575590000000     0.472320000000     0.0870231  
C68      C      0.619030000000     0.657880000000     0.514970000000    -0.0860717  
C69      C      0.680160000000     0.746220000000     0.487860000000    -0.0352578  
C70      C      0.717350000000     0.784480000000     0.485880000000    -0.0293946  
C71      C      0.692430000000     0.697050000000     0.482940000000    -0.00220677 
C72      C      0.653270000000     0.614440000000     0.466380000000    -0.087067   
C73      C      0.766970000000     0.774060000000     0.478390000000    -0.0133805  
C74      C      0.814190000000     0.841220000000     0.509810000000    -0.106547   
C75      C      0.779020000000     0.725350000000     0.472080000000    -0.0282054  
C76      C      0.854800000000     0.875620000000     0.512010000000     0.0859001  
C77      C      0.880560000000     0.855830000000     0.454740000000     0.193726   
C78      C      0.742050000000     0.687010000000     0.474570000000    -0.0334488  
C79      C      0.654150000000     0.656140000000     0.487940000000     0.0542242  
C80      C      0.807040000000     0.813350000000     0.479730000000     0.0756118  
C81      C      0.692550000000     0.369890000000     0.507210000000    -0.126856   
C82      C      0.878540000000     0.113970000000     0.466000000000     0.0714965  
C83      C      0.877200000000     0.110900000000     0.527280000000     0.0711737  
C84      C      0.843060000000     0.150230000000     0.466130000000    -0.0885744  
C85      C      0.746680000000     0.206350000000     0.474580000000    -0.0355407  
C86      C      0.711270000000     0.242640000000     0.475710000000    -0.0310086  
C87      C      0.786880000000     0.206960000000     0.498350000000    -0.00334089 
C88      C      0.842180000000     0.147460000000     0.528330000000    -0.0891994  
C89      C      0.715250000000     0.281070000000     0.500360000000    -0.0105142  
C90      C      0.626060000000     0.307900000000     0.497420000000    -0.100977   
C91      C      0.755660000000     0.281860000000     0.523940000000    -0.0307185  
C92      C      0.591330000000     0.344630000000     0.499170000000     0.0812895  
C93      C      0.657100000000     0.406280000000     0.508550000000     0.189511   
C94      C      0.790720000000     0.245290000000     0.523070000000    -0.0349836  
C95      C      0.824410000000     0.167780000000     0.497560000000     0.047799   
C96      C      0.677530000000     0.320060000000     0.501540000000     0.0678759  
C97      C      0.325890000000     0.378080000000     0.515670000000    -0.129488   
C98      C      0.122920000000     0.113410000000     0.537560000000     0.0770243  
C99      C      0.129240000000     0.118080000000     0.476170000000     0.0782915  
C100     C      0.159790000000     0.151770000000     0.541050000000    -0.0950056  
C101     C      0.265550000000     0.210140000000     0.494160000000    -0.0345203  
C102     C      0.303120000000     0.247900000000     0.495770000000    -0.0292103  
C103     C      0.221960000000     0.212610000000     0.514230000000    -0.00529371 
C104     C      0.166210000000     0.156250000000     0.478720000000    -0.0948736  
C105     C      0.297700000000     0.288670000000     0.517530000000    -0.011678   
C106     C      0.387870000000     0.316740000000     0.520550000000    -0.102718   
C107     C      0.254240000000     0.291140000000     0.537810000000    -0.0304326  
C108     C      0.425620000000     0.354230000000     0.518410000000     0.0910905  
C109     C      0.365040000000     0.414450000000     0.513600000000     0.194099   
C110     C      0.216580000000     0.253130000000     0.536270000000    -0.0346607  
C111     C      0.181870000000     0.173230000000     0.511390000000     0.0541917  
C112     C      0.337530000000     0.328510000000     0.518520000000     0.0739658  
C113     C      0.153950000000     0.828240000000     0.970620000000    -0.124881   
C114     C      0.344180000000     0.575020000000     0.007790000000     0.0748517  
C115     C      0.407910000000     0.639810000000     0.006040000000     0.0748014  
C116     C      0.306870000000     0.609450000000     0.007560000000    -0.0921102  
C117     C      0.237350000000     0.692410000000     0.025860000000    -0.0348652  
C118     C      0.201040000000     0.727870000000     0.025100000000    -0.0311052  
C119     C      0.280970000000     0.697890000000     0.005200000000    -0.00456593 
C120     C      0.371630000000     0.675130000000     0.005430000000    -0.0922382  
C121     C      0.206890000000     0.769600000000     0.003340000000    -0.00978982 
C122     C      0.144720000000     0.823410000000     0.032240000000    -0.0984539  
C123     C      0.250400000000     0.774900000000     0.982580000000    -0.0309915  
C124     C      0.109520000000     0.859740000000     0.030550000000     0.0778808  
C125     C      0.118190000000     0.864310000000     0.969430000000     0.189068   
C126     C      0.286900000000     0.739770000000     0.983600000000    -0.0343368  
C127     C      0.320200000000     0.660390000000     0.006160000000     0.0494769  
C128     C      0.167950000000     0.807380000000     0.002100000000     0.0670797  
C129     C      0.824400000000     0.829340000000     0.972640000000    -0.132517   
C130     C      0.578340000000     0.615880000000     0.034940000000     0.0798475  
C131     C      0.616970000000     0.586160000000     0.984160000000     0.0858019  
C132     C      0.611260000000     0.657660000000     0.035210000000    -0.0913617  
C133     C      0.710850000000     0.720420000000     0.037340000000    -0.0347642  
C134     C      0.746720000000     0.759820000000     0.035800000000    -0.028851   
C135     C      0.681640000000     0.707850000000     0.008130000000    -0.00407584 
C136     C      0.650220000000     0.627650000000     0.983180000000    -0.0882528  
C137     C      0.753290000000     0.787480000000     0.005130000000    -0.0132148  
C138     C      0.807120000000     0.856350000000     0.030630000000    -0.106271   
C139     C      0.722370000000     0.776030000000     0.976400000000    -0.0291195  
C140     C      0.849450000000     0.888650000000     0.028970000000     0.0851923  
C141     C      0.866470000000     0.862520000000     0.971400000000     0.193772   
C142     C      0.686970000000     0.736170000000     0.977820000000    -0.0351841  
C143     C      0.647090000000     0.663880000000     0.008820000000     0.0533216  
C144     C      0.794700000000     0.825780000000     0.002480000000     0.0744546  
C145     C      0.695010000000     0.375030000000     0.008680000000    -0.121382   
C146     C      0.884480000000     0.119690000000     0.033700000000     0.0710664  
C147     C      0.880250000000     0.117290000000     0.972470000000     0.0718211  
C148     C      0.849550000000     0.156410000000     0.034630000000    -0.0892494  
C149     C      0.748870000000     0.209150000000     0.981970000000    -0.0343397  
C150     C      0.713130000000     0.245120000000     0.982540000000    -0.0322808  
C151     C      0.790800000000     0.212480000000     0.004300000000    -0.00406838 
C152     C      0.844870000000     0.153570000000     0.972500000000    -0.0886878  
C153     C      0.718420000000     0.285910000000     0.005180000000    -0.00678651 
C154     C      0.628720000000     0.311410000000     0.003250000000    -0.0778054  
C155     C      0.760480000000     0.289370000000     0.027400000000    -0.0322775  
C156     C      0.594090000000     0.348180000000     0.004040000000     0.0428901  
C157     C      0.659090000000     0.411150000000     0.009050000000     0.188491   
C158     C      0.795940000000     0.253120000000     0.027090000000    -0.0342144  
C159     C      0.828860000000     0.173790000000     0.003810000000     0.0478985  
C160     C      0.680290000000     0.324520000000     0.005650000000     0.0591     
C161     C      0.396930000000     0.313510000000     0.003040000000    -0.134851   
C162     C      0.136480000000     0.107270000000     0.972990000000     0.0787159  
C163     C      0.137490000000     0.102850000000     0.034520000000     0.0778752  
C164     C      0.177050000000     0.142030000000     0.973370000000    -0.0943743  
C165     C      0.233300000000     0.237220000000     0.029260000000    -0.0356195  
C166     C      0.268910000000     0.276860000000     0.028840000000    -0.0304264  
C167     C      0.237340000000     0.197760000000     0.006110000000    -0.00551352 
C168     C      0.178070000000     0.137480000000     0.035850000000    -0.0954423  
C169     C      0.308960000000     0.277560000000     0.005260000000    -0.013983   
C170     C      0.328600000000     0.368320000000     0.004630000000    -0.105663   
C171     C      0.313680000000     0.237650000000     0.982600000000    -0.0301038  
C172     C      0.363620000000     0.408490000000     0.004630000000     0.0855001  
C173     C      0.430480000000     0.354810000000     0.003110000000     0.190177   
C174     C      0.277960000000     0.197950000000     0.982980000000    -0.0353569  
C175     C      0.197640000000     0.157840000000     0.005080000000     0.0539481  
C176     C      0.345350000000     0.320330000000     0.004100000000     0.0717945  
Cu1      Cu     0.997800000000     0.991470000000     0.969400000000     0.87328    
Cu2      Cu     0.997450000000     0.989340000000     0.033230000000     0.846649   
Cu3      Cu     0.001670000000     0.992480000000     0.463630000000     0.872967   
Cu4      Cu     0.995330000000     0.985910000000     0.527200000000     0.844151   
Cu5      Cu     0.534350000000     0.529190000000     0.008060000000     1.18098    
Cu6      Cu     0.461990000000     0.453410000000     0.005680000000     1.16032    
Cu7      Cu     0.535920000000     0.527500000000     0.504180000000     1.18093    
Cu8      Cu     0.463250000000     0.452510000000     0.509240000000     1.17365    
H1       H      0.559950000000     0.549970000000     0.902190000000     0.0260316  
H2       H      0.444330000000     0.442910000000     0.614380000000     0.0287275  
H3       H      0.585030000000     0.499830000000     0.789970000000     0.0422701  
H4       H      0.424700000000     0.495700000000     0.724430000000     0.0394166  
H5       H      0.443650000000     0.443550000000     0.676570000000     0.058334   
H6       H      0.422820000000     0.494770000000     0.787600000000     0.0404697  
H7       H      0.571150000000     0.549010000000     0.676780000000     0.082807   
H8       H      0.562540000000     0.552600000000     0.839340000000     0.0565407  
H9       H      0.442050000000     0.438730000000     0.835680000000     0.0558719  
H10      H      0.587040000000     0.500020000000     0.726740000000     0.0434387  
H11      H      0.440100000000     0.437160000000     0.898520000000     0.0290023  
H12      H      0.436480000000     0.426030000000     0.111440000000     0.0290435  
H13      H      0.547480000000     0.539280000000     0.398970000000     0.0250955  
H14      H      0.410310000000     0.471400000000     0.224190000000     0.0407971  
H15      H      0.571350000000     0.487390000000     0.288900000000     0.0396554  
H16      H      0.547520000000     0.538720000000     0.336770000000     0.0582031  
H17      H      0.572540000000     0.488470000000     0.225740000000     0.0413408  
H18      H      0.431230000000     0.421360000000     0.337090000000     0.0824373  
H19      H      0.434750000000     0.422600000000     0.174270000000     0.0561451  
H20      H      0.550110000000     0.541560000000     0.177880000000     0.0557211  
H21      H      0.409080000000     0.470500000000     0.287450000000     0.0423998  
H22      H      0.551480000000     0.543610000000     0.115100000000     0.0274957  
H23      H      0.449250000000     0.653280000000     0.505460000000     0.027795   
H24      H      0.109630000000     0.885390000000     0.550550000000     0.0283249  
H25      H      0.320220000000     0.747040000000     0.540550000000     0.0413486  
H26      H      0.171750000000     0.719870000000     0.463810000000     0.0444866  
H27      H      0.170010000000     0.822840000000     0.553790000000     0.0579456  
H28      H      0.234320000000     0.657640000000     0.466250000000     0.0440726  
H29      H      0.162700000000     0.805060000000     0.443270000000     0.082608   
H30      H      0.385480000000     0.713740000000     0.503930000000     0.0538279  
H31      H      0.269860000000     0.594610000000     0.505170000000     0.0551184  
H32      H      0.258050000000     0.809360000000     0.537860000000     0.039588   
H33      H      0.340760000000     0.535550000000     0.507350000000     0.10795    
H34      H      0.617070000000     0.543270000000     0.455840000000     0.0235472  
H35      H      0.858890000000     0.896730000000     0.535860000000     0.025839   
H36      H      0.752780000000     0.649440000000     0.471170000000     0.0471943  
H37      H      0.707590000000     0.822100000000     0.490600000000     0.0400698  
H38      H      0.789190000000     0.835660000000     0.531830000000     0.0612146  
H39      H      0.642000000000     0.755070000000     0.493640000000     0.0403212  
H40      H      0.835590000000     0.798220000000     0.428910000000     0.0849533  
H41      H      0.679320000000     0.611980000000     0.444990000000     0.0574542  
H42      H      0.619060000000     0.689020000000     0.532560000000     0.0595205  
H43      H      0.817400000000     0.716770000000     0.466680000000     0.0457061  
H44      H      0.556150000000     0.619760000000     0.540080000000     0.0282823  
H45      H      0.889460000000     0.096410000000     0.551840000000     0.0282491  
H46      H      0.552080000000     0.332640000000     0.495690000000     0.0265022  
H47      H      0.821280000000     0.247410000000     0.541610000000     0.0415475  
H48      H      0.681000000000     0.240890000000     0.456930000000     0.0398755  
H49      H      0.612340000000     0.269880000000     0.493340000000     0.0575218  
H50      H      0.742100000000     0.177310000000     0.455350000000     0.0408616  
H51      H      0.732110000000     0.380760000000     0.510420000000     0.0820704  
H52      H      0.828600000000     0.159220000000     0.553280000000     0.0544825  
H53      H      0.830940000000     0.164980000000     0.441640000000     0.0552006  
H54      H      0.759870000000     0.310480000000     0.543510000000     0.0432386  
H55      H      0.891950000000     0.101950000000     0.441050000000     0.030351   
H56      H      0.118110000000     0.105970000000     0.450340000000     0.0303328  
H57      H      0.464300000000     0.344920000000     0.519770000000     0.0163475  
H58      H      0.182980000000     0.255760000000     0.551800000000     0.0410891  
H59      H      0.336140000000     0.245530000000     0.479620000000     0.0438115  
H60      H      0.397930000000     0.278850000000     0.523410000000     0.0582866  
H61      H      0.270600000000     0.178950000000     0.477210000000     0.0421317  
H62      H      0.287280000000     0.388190000000     0.514120000000     0.0800933  
H63      H      0.182250000000     0.172560000000     0.455240000000     0.058306   
H64      H      0.171510000000     0.163950000000     0.566720000000     0.0560172  
H65      H      0.249560000000     0.322240000000     0.554890000000     0.0407162  
H66      H      0.106710000000     0.097370000000     0.561090000000     0.0272639  
H67      H      0.447090000000     0.653300000000     0.005520000000     0.0265431  
H68      H      0.093380000000     0.870780000000     0.054940000000     0.0287819  
H69      H      0.319620000000     0.745200000000     0.967060000000     0.0408944  
H70      H      0.167960000000     0.722200000000     0.041270000000     0.0406263  
H71      H      0.154390000000     0.808720000000     0.057310000000     0.0575495  
H72      H      0.231530000000     0.660970000000     0.043040000000     0.040294   
H73      H      0.170540000000     0.816150000000     0.946680000000     0.0827371  
H74      H      0.384010000000     0.713960000000     0.004810000000     0.0543598  
H75      H      0.267720000000     0.596060000000     0.007850000000     0.0546216  
H76      H      0.256640000000     0.806670000000     0.965740000000     0.042526   
H77      H      0.331900000000     0.536150000000     0.008610000000     0.023859   
H78      H      0.618870000000     0.558040000000     0.964400000000     0.0257463  
H79      H      0.857530000000     0.911780000000     0.051490000000     0.0254871  
H80      H      0.664070000000     0.727140000000     0.955200000000     0.0415939  
H81      H      0.770590000000     0.767310000000     0.058160000000     0.0403371  
H82      H      0.784520000000     0.855120000000     0.054000000000     0.0586823  
H83      H      0.707280000000     0.698580000000     0.060850000000     0.0435419  
H84      H      0.816350000000     0.804800000000     0.950880000000     0.0844853  
H85      H      0.678140000000     0.631370000000     0.962770000000     0.0601582  
H86      H      0.608100000000     0.685280000000     0.055270000000     0.0545075  
H87      H      0.726140000000     0.797340000000     0.952680000000     0.0418506  
H88      H      0.549430000000     0.611430000000     0.054560000000     0.0164461  
H89      H      0.891310000000     0.103000000000     0.947550000000     0.0306597  
H90      H      0.554690000000     0.340570000000     0.003050000000     0.111365   
H91      H      0.827820000000     0.257310000000     0.044480000000     0.0408973  
H92      H      0.681580000000     0.241240000000     0.964850000000     0.0410689  
H93      H      0.614970000000     0.273050000000     0.001430000000     0.0559276  
H94      H      0.743230000000     0.178280000000     0.964280000000     0.0409298  
H95      H      0.734590000000     0.386630000000     0.010330000000     0.080266   
H96      H      0.830590000000     0.166080000000     0.947950000000     0.0553382  
H97      H      0.838170000000     0.170420000000     0.059520000000     0.0544003  
H98      H      0.765730000000     0.319870000000     0.045440000000     0.0430083  
H99      H      0.898910000000     0.107290000000     0.058260000000     0.0279329  
H100     H      0.122970000000     0.088210000000     0.058960000000     0.0274335  
H101     H      0.350640000000     0.445360000000     0.005300000000     0.01462    
H102     H      0.281850000000     0.167630000000     0.965080000000     0.0414151  
H103     H      0.265020000000     0.307060000000     0.046850000000     0.0386861  
H104     H      0.288880000000     0.374680000000     0.004990000000     0.0570736  
H105     H      0.201930000000     0.238060000000     0.047060000000     0.0404228  
H106     H      0.410900000000     0.276830000000     0.002970000000     0.0782507  
H107     H      0.193680000000     0.148590000000     0.060800000000     0.0561939  
H108     H      0.191090000000     0.157530000000     0.949090000000     0.0570554  
H109     H      0.344290000000     0.237660000000     0.964120000000     0.040593   
H110     H      0.120930000000     0.096400000000     0.947940000000     0.0309457  
N1       N      0.508190000000     0.495180000000     0.608650000000    -0.217916   
N2       N      0.499820000000     0.493430000000     0.905050000000    -0.206087   
N3       N      0.489200000000     0.481020000000     0.405010000000    -0.218555   
N4       N      0.494120000000     0.485010000000     0.108570000000    -0.205836   
N5       N      0.100520000000     0.882630000000     0.495140000000    -0.20077    
N6       N      0.396690000000     0.590100000000     0.506200000000    -0.186109   
N7       N      0.887470000000     0.883450000000     0.484720000000    -0.210287   
N8       N      0.584120000000     0.578410000000     0.498520000000    -0.260786   
N9       N      0.606130000000     0.393730000000     0.504450000000    -0.21405    
N10      N      0.895550000000     0.094270000000     0.496350000000    -0.189144   
N11      N      0.413600000000     0.401840000000     0.514330000000    -0.271591   
N12      N      0.107850000000     0.096760000000     0.505350000000    -0.196382   
N13      N      0.096050000000     0.880680000000     0.999580000000    -0.200616   
N14      N      0.394450000000     0.589980000000     0.007010000000    -0.20323    
N15      N      0.879020000000     0.891920000000     0.999760000000    -0.210433   
N16      N      0.581700000000     0.581430000000     0.009570000000    -0.263037   
N17      N      0.608190000000     0.397490000000     0.006630000000    -0.196262   
N18      N      0.899800000000     0.100090000000     0.002850000000    -0.189364   
N19      N      0.413540000000     0.400980000000     0.004120000000    -0.273065   
N20      N      0.116450000000     0.088450000000     0.003360000000    -0.196619   
O1       O      0.948790000000     0.046500000000     0.973270000000    -0.388358   
O2       O      0.046660000000     0.936310000000     0.971740000000    -0.362612   
O3       O      0.939360000000     0.940770000000     0.971530000000    -0.380998   
O4       O      0.056420000000     0.041750000000     0.973440000000    -0.400437   
O5       O      0.056890000000     0.038630000000     0.031180000000    -0.404615   
O6       O      0.938000000000     0.940320000000     0.029180000000    -0.40551    
O7       O      0.045330000000     0.933140000000     0.029160000000    -0.388337   
O8       O      0.949700000000     0.045740000000     0.030990000000    -0.38912    
O9       O      0.053030000000     0.939320000000     0.466580000000    -0.362152   
O10      O      0.949220000000     0.044680000000     0.467010000000    -0.387071   
O11      O      0.056660000000     0.045400000000     0.471870000000    -0.403189   
O12      O      0.946230000000     0.938950000000     0.461290000000    -0.381614   
O13      O      0.939610000000     0.933420000000     0.518670000000    -0.402397   
O14      O      0.051360000000     0.039390000000     0.529390000000    -0.40213    
O15      O      0.944240000000     0.039050000000     0.524520000000    -0.389856   
O16      O      0.047250000000     0.933380000000     0.523820000000    -0.388524   
O17      O      0.527920000000     0.521410000000     0.958150000000    -0.476569   
O18      O      0.524870000000     0.517660000000     0.057390000000    -0.474958   
O19      O      0.580570000000     0.476680000000     0.007960000000    -0.437677   
O20      O      0.477160000000     0.570210000000     0.007500000000    -0.471611   
O21      O      0.418640000000     0.509630000000     0.006630000000    -0.464041   
O22      O      0.522910000000     0.414780000000     0.005310000000    -0.38948    
O23      O      0.466050000000     0.457170000000     0.055460000000    -0.471149   
O24      O      0.468140000000     0.461850000000     0.956260000000    -0.470815   
O25      O      0.522200000000     0.514340000000     0.455470000000    -0.481266   
O26      O      0.533390000000     0.522970000000     0.554400000000    -0.451156   
O27      O      0.581490000000     0.474160000000     0.504990000000    -0.443549   
O28      O      0.478720000000     0.568540000000     0.505710000000    -0.461057   
O29      O      0.419070000000     0.508150000000     0.508100000000    -0.394377   
O30      O      0.523130000000     0.413800000000     0.506140000000    -0.464254   
O31      O      0.474970000000     0.462690000000     0.558080000000    -0.478378   
O32      O      0.463740000000     0.454350000000     0.459380000000    -0.449186   


