data_structure

_audit_creation_method RASPA-1.0
_audit_creation_date 2023-5-19
_audit_author_name 'Poobodin Mano'

_cell_length_a    39.0326
_cell_length_b    39.0321
_cell_length_c    39.0328
_cell_angle_alpha 90
_cell_angle_beta  90
_cell_angle_gamma 90
_cell_volume      59467.4

_symmetry_cell_setting          triclinic
_symmetry_space_group_name_Hall 'P 1'
_symmetry_space_group_name_H-M  'P 1'
_symmetry_Int_Tables_number     1

_symmetry_equiv_pos_as_xyz 'x,y,z'

loop_
_atom_site_label
_atom_site_type_symbol
_atom_site_fract_x
_atom_site_fract_y
_atom_site_fract_z
_atom_site_charge
C1       C      0.995140000000     0.066840000000     0.497360000000     0.406495   
C2       C      0.996530000000     0.929810000000     0.496590000000     0.406413   
C3       C      0.064160000000     0.999220000000     0.496450000000     0.406275   
C4       C      0.927130000000     0.997830000000     0.496550000000     0.406354   
C5       C      0.999210000000     0.429960000000     0.493100000000     0.406252   
C6       C      0.999910000000     0.566690000000     0.492080000000     0.406234   
C7       C      0.998710000000     0.497720000000     0.424440000000     0.406344   
C8       C      0.000570000000     0.498840000000     0.561300000000     0.405796   
C9       C      0.564010000000     0.003050000000     0.501220000000     0.406647   
C10      C      0.427280000000     0.003780000000     0.501020000000     0.406812   
C11      C      0.495790000000     0.003500000000     0.432400000000     0.405906   
C12      C      0.495590000000     0.003670000000     0.569420000000     0.406067   
C13      C      0.496600000000     0.993580000000     0.069170000000     0.406674   
C14      C      0.496550000000     0.993330000000     0.932450000000     0.406868   
C15      C      0.493620000000     0.061920000000     0.000330000000     0.405674   
C16      C      0.499430000000     0.925010000000     0.000720000000     0.405797   
C17      C      0.063320000000     0.492010000000     0.992540000000     0.406511   
C18      C      0.926490000000     0.488870000000     0.993770000000     0.40629    
C19      C      0.995560000000     0.488850000000     0.061360000000     0.406348   
C20      C      0.994360000000     0.492160000000     0.924520000000     0.406108   
C21      C      0.494500000000     0.425120000000     0.994000000000     0.406569   
C22      C      0.495600000000     0.561840000000     0.994500000000     0.406491   
C23      C      0.426530000000     0.494200000000     0.992320000000     0.405932   
C24      C      0.563350000000     0.493000000000     0.995610000000     0.406341   
C25      C      0.836290000000     0.459110000000     0.997380000000    -0.0952367  
C26      C      0.616760000000     0.493610000000     0.966130000000     0.0735726  
C27      C      0.615870000000     0.492200000000     0.026840000000     0.0732587  
C28      C      0.652510000000     0.493700000000     0.966160000000    -0.0930031  
C29      C      0.727030000000     0.514150000000     0.975270000000    -0.0348144  
C30      C      0.762820000000     0.513560000000     0.975090000000    -0.0344342  
C31      C      0.708470000000     0.492810000000     0.997580000000    -0.00626414 
C32      C      0.651670000000     0.492100000000     0.027790000000    -0.0928355  
C33      C      0.780860000000     0.491510000000     0.997100000000    -0.00669027 
C34      C      0.838060000000     0.520480000000     0.994480000000    -0.0935804  
C35      C      0.762320000000     0.470320000000     0.019570000000    -0.0344361  
C36      C      0.873750000000     0.518990000000     0.993720000000     0.0724964  
C37      C      0.872200000000     0.458160000000     0.996450000000     0.088188   
C38      C      0.726520000000     0.471030000000     0.019870000000    -0.0344528  
C39      C      0.887630000000     0.424450000000     0.997950000000     0.0445645  
C40      C      0.670430000000     0.492930000000     0.997220000000     0.050404   
C41      C      0.818890000000     0.490380000000     0.996380000000     0.0523739  
C42      C      0.336500000000     0.497350000000     0.962030000000    -0.0955149  
C43      C      0.115670000000     0.523450000000     0.993120000000     0.073532   
C44      C      0.116880000000     0.462720000000     0.992890000000     0.0740289  
C45      C      0.151440000000     0.524610000000     0.993540000000    -0.0928353  
C46      C      0.227000000000     0.472160000000     0.015070000000    -0.0347264  
C47      C      0.262810000000     0.472520000000     0.015010000000    -0.0341854  
C48      C      0.208430000000     0.494840000000     0.994120000000    -0.00603805 
C49      C      0.152650000000     0.462960000000     0.993470000000    -0.092418   
C50      C      0.280840000000     0.495420000000     0.993860000000    -0.00675576 
C51      C      0.337850000000     0.492810000000     0.023320000000    -0.0935755  
C52      C      0.262260000000     0.518220000000     0.973060000000    -0.0343996  
C53      C      0.373570000000     0.492690000000     0.022090000000     0.0723617  
C54      C      0.372420000000     0.497020000000     0.961350000000     0.0880216  
C55      C      0.226470000000     0.517980000000     0.973250000000    -0.0345013  
C56      C      0.388030000000     0.499680000000     0.927790000000     0.042999   
C57      C      0.170380000000     0.494140000000     0.993780000000     0.0505554  
C58      C      0.318880000000     0.495230000000     0.993110000000     0.0523761  
C59      C      0.530520000000     0.835200000000     0.997960000000    -0.0953876  
C60      C      0.497580000000     0.615130000000     0.964690000000     0.0736881  
C61      C      0.494860000000     0.614480000000     0.025360000000     0.0736113  
C62      C      0.498140000000     0.650920000000     0.964660000000    -0.0925673  
C63      C      0.475850000000     0.725190000000     0.018580000000    -0.0347945  
C64      C      0.476470000000     0.760980000000     0.019330000000    -0.0344086  
C65      C      0.497420000000     0.706960000000     0.996230000000    -0.0061565  
C66      C      0.495240000000     0.650220000000     0.026240000000    -0.092975   
C67      C      0.498760000000     0.779350000000     0.997830000000    -0.00677653 
C68      C      0.469110000000     0.836160000000     0.000390000000    -0.0935927  
C69      C      0.520330000000     0.761120000000     0.975460000000    -0.0343843  
C70      C      0.470120000000     0.871850000000     0.001070000000     0.0724876  
C71      C      0.530970000000     0.871140000000     0.998800000000     0.0878736  
C72      C      0.519610000000     0.725330000000     0.974610000000    -0.0346195  
C73      C      0.564480000000     0.887040000000     0.997890000000     0.0428467  
C74      C      0.496910000000     0.668910000000     0.995680000000     0.0504214  
C75      C      0.499470000000     0.817390000000     0.998730000000     0.052288   
C76      C      0.462340000000     0.151610000000     0.996310000000    -0.0953507  
C77      C      0.494170000000     0.371980000000     0.963810000000     0.0737579  
C78      C      0.494540000000     0.372300000000     0.024540000000     0.0737128  
C79      C      0.494090000000     0.336170000000     0.963560000000    -0.0924897  
C80      C      0.515640000000     0.261960000000     0.017820000000    -0.034696   
C81      C      0.515390000000     0.226170000000     0.018540000000    -0.0342169  
C82      C      0.494490000000     0.279970000000     0.994890000000    -0.00603187 
C83      C      0.494650000000     0.336550000000     0.025210000000    -0.0929538  
C84      C      0.493860000000     0.207570000000     0.996470000000    -0.00665786 
C85      C      0.523700000000     0.150880000000     0.999950000000    -0.0935128  
C86      C      0.472780000000     0.225570000000     0.973460000000    -0.0341608  
C87      C      0.522790000000     0.115180000000     0.000840000000     0.0726311  
C88      C      0.461980000000     0.115690000000     0.997410000000     0.0880693  
C89      C      0.473170000000     0.261370000000     0.972610000000    -0.0344311  
C90      C      0.428550000000     0.099690000000     0.995820000000     0.0432147  
C91      C      0.494430000000     0.318020000000     0.994520000000     0.0505872  
C92      C      0.493310000000     0.169530000000     0.997560000000     0.0525254  
C93      C      0.496890000000     0.031730000000     0.660200000000    -0.0954388  
C94      C      0.526920000000     0.995280000000     0.879550000000     0.0741797  
C95      C      0.466280000000     0.991840000000     0.879440000000     0.0742208  
C96      C      0.527420000000     0.995860000000     0.843790000000    -0.0925392  
C97      C      0.474830000000     0.974190000000     0.768310000000    -0.0346611  
C98      C      0.474740000000     0.975500000000     0.732520000000    -0.0342192  
C99      C      0.496690000000     0.995570000000     0.787350000000    -0.0059148  
C100     C      0.465860000000     0.992260000000     0.843660000000    -0.0924515  
C101     C      0.496390000000     0.998340000000     0.715000000000    -0.00673819 
C102     C      0.494780000000     0.970370000000     0.657240000000    -0.0936936  
C103     C      0.518300000000     0.019640000000     0.734050000000    -0.0341112  
C104     C      0.494690000000     0.972540000000     0.621570000000     0.0724319  
C105     C      0.496670000000     0.033360000000     0.624320000000     0.0881508  
C106     C      0.518490000000     0.018240000000     0.769800000000    -0.0343446  
C107     C      0.497700000000     0.067400000000     0.609590000000     0.0437205  
C108     C      0.496660000000     0.994430000000     0.825390000000     0.0507346  
C109     C      0.495990000000     0.000140000000     0.676990000000     0.0526322  
C110     C      0.497410000000     0.031430000000     0.341550000000    -0.0953231  
C111     C      0.466390000000     0.992200000000     0.122240000000     0.0738422  
C112     C      0.527040000000     0.995360000000     0.122060000000     0.073979   
C113     C      0.466030000000     0.992510000000     0.158030000000    -0.0922843  
C114     C      0.475010000000     0.974160000000     0.233370000000    -0.0346076  
C115     C      0.474970000000     0.975360000000     0.269170000000    -0.0342733  
C116     C      0.496960000000     0.995460000000     0.214350000000    -0.00594335 
C117     C      0.527590000000     0.995830000000     0.157830000000    -0.0924639  
C118     C      0.496750000000     0.998040000000     0.286740000000    -0.00660166 
C119     C      0.494910000000     0.970100000000     0.344570000000    -0.0933643  
C120     C      0.518780000000     0.019250000000     0.267710000000    -0.0342373  
C121     C      0.494800000000     0.972300000000     0.380250000000     0.0722644  
C122     C      0.497170000000     0.033090000000     0.377440000000     0.0880348  
C123     C      0.518910000000     0.017940000000     0.231950000000    -0.0343124  
C124     C      0.498450000000     0.067140000000     0.392130000000     0.0435425  
C125     C      0.496860000000     0.994470000000     0.176290000000     0.0505121  
C126     C      0.496330000000     0.999840000000     0.324780000000     0.0523553  
C127     C      0.029610000000     0.500420000000     0.651810000000    -0.0951941  
C128     C      0.994270000000     0.523860000000     0.872340000000     0.0735566  
C129     C      0.994030000000     0.463150000000     0.870770000000     0.0737815  
C130     C      0.994490000000     0.525250000000     0.836590000000    -0.0928519  
C131     C      0.016550000000     0.519140000000     0.762110000000    -0.0344678  
C132     C      0.017510000000     0.519860000000     0.726330000000    -0.0342391  
C133     C      0.995100000000     0.495930000000     0.779390000000    -0.00604072 
C134     C      0.994080000000     0.463620000000     0.834980000000    -0.0922866  
C135     C      0.996930000000     0.497500000000     0.707000000000    -0.00670045 
C136     C      0.968340000000     0.496170000000     0.649510000000    -0.0934339  
C137     C      0.975290000000     0.474460000000     0.724260000000    -0.0342217  
C138     C      0.970080000000     0.496740000000     0.613810000000     0.0723137  
C139     C      0.030810000000     0.500810000000     0.615890000000     0.0878822  
C140     C      0.974460000000     0.473610000000     0.760060000000    -0.034737   
C141     C      0.064570000000     0.503740000000     0.600770000000     0.0430071  
C142     C      0.994440000000     0.494920000000     0.817440000000     0.0504606  
C143     C      0.998280000000     0.498040000000     0.668950000000     0.052252   
C144     C      0.997800000000     0.459240000000     0.151670000000    -0.0953576  
C145     C      0.028470000000     0.496040000000     0.371180000000     0.0735525  
C146     C      0.967750000000     0.497610000000     0.371800000000     0.0733339  
C147     C      0.028540000000     0.495080000000     0.335420000000    -0.0928379  
C148     C      0.974580000000     0.515040000000     0.260580000000    -0.0347367  
C149     C      0.974300000000     0.513920000000     0.224800000000    -0.0344041  
C150     C      0.997150000000     0.494200000000     0.279370000000    -0.00627524 
C151     C      0.966910000000     0.496810000000     0.336040000000    -0.09294    
C152     C      0.996470000000     0.491800000000     0.207010000000    -0.00678631 
C153     C      0.994270000000     0.520580000000     0.149730000000    -0.0937145  
C154     C      0.018990000000     0.470910000000     0.225810000000    -0.0342197  
C155     C      0.994200000000     0.519010000000     0.114050000000     0.0726548  
C156     C      0.997570000000     0.458230000000     0.115740000000     0.0883454  
C157     C      0.019370000000     0.472140000000     0.261570000000    -0.0344183  
C158     C      0.999380000000     0.424490000000     0.100400000000     0.0446037  
C159     C      0.997530000000     0.495430000000     0.317400000000     0.0503914  
C160     C      0.996150000000     0.490530000000     0.168980000000     0.0525474  
C161     C      0.154730000000     0.003100000000     0.467970000000    -0.095278   
C162     C      0.374230000000     0.973600000000     0.502260000000     0.0737773  
C163     C      0.374390000000     0.034330000000     0.500980000000     0.0742975  
C164     C      0.338460000000     0.973240000000     0.502780000000    -0.0928216  
C165     C      0.263740000000     0.981550000000     0.523430000000    -0.0345172  
C166     C      0.227930000000     0.981140000000     0.522860000000    -0.0342199  
C167     C      0.282140000000     0.004130000000     0.502220000000    -0.00584216 
C168     C      0.338610000000     0.034880000000     0.501320000000    -0.0921642  
C169     C      0.209740000000     0.003160000000     0.500920000000    -0.00631375 
C170     C      0.152190000000     0.999740000000     0.529290000000    -0.092669   
C171     C      0.228140000000     0.025930000000     0.479940000000    -0.0340748  
C172     C      0.116510000000     0.998870000000     0.527330000000     0.0732654  
C173     C      0.118860000000     0.002040000000     0.466550000000     0.0885875  
C174     C      0.263920000000     0.026460000000     0.480630000000    -0.0342805  
C175     C      0.103940000000     0.003470000000     0.432600000000     0.0439883  
C176     C      0.320190000000     0.004100000000     0.502250000000     0.0507769  
C177     C      0.171730000000     0.002010000000     0.499440000000     0.0527429  
C178     C      0.836510000000     0.000180000000     0.468110000000    -0.0952186  
C179     C      0.617180000000     0.033070000000     0.501160000000     0.0743871  
C180     C      0.616770000000     0.972360000000     0.502720000000     0.0737555  
C181     C      0.652960000000     0.033300000000     0.501510000000    -0.092271   
C182     C      0.727450000000     0.979600000000     0.523820000000    -0.0345802  
C183     C      0.763270000000     0.979020000000     0.523230000000    -0.0342669  
C184     C      0.709150000000     0.002090000000     0.502440000000    -0.00587779 
C185     C      0.652550000000     0.971670000000     0.503270000000    -0.0927206  
C186     C      0.781530000000     0.000750000000     0.501070000000    -0.00631742 
C187     C      0.839110000000     0.997730000000     0.529470000000    -0.0926619  
C188     C      0.763220000000     0.023390000000     0.479880000000    -0.0341587  
C189     C      0.874810000000     0.997100000000     0.527480000000     0.0731194  
C190     C      0.872370000000     0.999340000000     0.466660000000     0.0883257  
C191     C      0.727450000000     0.024100000000     0.480600000000    -0.0343041  
C192     C      0.887230000000     0.000100000000     0.432670000000     0.0437125  
C193     C      0.671090000000     0.002360000000     0.502560000000     0.0507516  
C194     C      0.819540000000     0.999520000000     0.499600000000     0.0524879  
C195     C      0.000350000000     0.839110000000     0.524620000000    -0.0951277  
C196     C      0.969790000000     0.619800000000     0.490900000000     0.0734393  
C197     C      0.030530000000     0.619510000000     0.491240000000     0.0737816  
C198     C      0.969500000000     0.655580000000     0.490190000000    -0.0928844  
C199     C      0.977790000000     0.730320000000     0.469280000000    -0.0347726  
C200     C      0.977550000000     0.766150000000     0.469840000000    -0.0343268  
C201     C      0.000580000000     0.711830000000     0.490180000000    -0.00599276 
C202     C      0.031160000000     0.655280000000     0.490700000000    -0.0925859  
C203     C      0.999920000000     0.784230000000     0.491490000000    -0.00654484 
C204     C      0.996460000000     0.841910000000     0.463340000000    -0.0926471  
C205     C      0.022900000000     0.765730000000     0.512160000000    -0.0341843  
C206     C      0.995790000000     0.877600000000     0.465450000000     0.0730058  
C207     C      0.999470000000     0.874970000000     0.526200000000     0.0881345  
C208     C      0.023270000000     0.729960000000     0.511460000000    -0.0344515  
C209     C      0.001410000000     0.889740000000     0.560190000000     0.043784   
C210     C      0.000420000000     0.673770000000     0.490190000000     0.0505489  
C211     C      0.998910000000     0.822240000000     0.493100000000     0.0523737  
C212     C      0.997300000000     0.157300000000     0.526330000000    -0.0953147  
C213     C      0.029290000000     0.376830000000     0.493260000000     0.0739986  
C214     C      0.968560000000     0.377160000000     0.492240000000     0.0736313  
C215     C      0.029560000000     0.341060000000     0.493060000000    -0.0925639  
C216     C      0.020630000000     0.266570000000     0.514140000000    -0.034207   
C217     C      0.020070000000     0.230800000000     0.514770000000    -0.0340347  
C218     C      0.998430000000     0.284840000000     0.492470000000    -0.00607813 
C219     C      0.967910000000     0.341380000000     0.491840000000    -0.092877   
C220     C      0.997390000000     0.212450000000     0.493650000000    -0.00644749 
C221     C      0.994600000000     0.155040000000     0.464970000000    -0.0926163  
C222     C      0.975430000000     0.230680000000     0.471700000000    -0.0341567  
C223     C      0.994160000000     0.119330000000     0.466740000000     0.073299   
C224     C      0.996660000000     0.121420000000     0.527560000000     0.0886215  
C225     C      0.975860000000     0.266500000000     0.471200000000    -0.0344795  
C226     C      0.997760000000     0.106350000000     0.561460000000     0.0440539  
C227     C      0.998640000000     0.322890000000     0.492330000000     0.0506672  
C228     C      0.996390000000     0.174440000000     0.494940000000     0.0527757  
Cu1      Cu     0.995690000000     0.998140000000     0.528200000000     0.858543   
Cu2      Cu     0.995610000000     0.998520000000     0.465260000000     0.858274   
Cu3      Cu     0.968000000000     0.498480000000     0.493190000000     0.844749   
Cu4      Cu     0.031130000000     0.498170000000     0.492380000000     0.855889   
Cu5      Cu     0.495460000000     0.971910000000     0.500980000000     0.842528   
Cu6      Cu     0.495820000000     0.034980000000     0.500870000000     0.863368   
Cu7      Cu     0.528050000000     0.994790000000     0.000780000000     0.853374   
Cu8      Cu     0.465030000000     0.992130000000     0.000810000000     0.853092   
Cu9      Cu     0.994260000000     0.522030000000     0.993630000000     0.84365    
Cu10     Cu     0.995670000000     0.458990000000     0.992140000000     0.862236   
Cu11     Cu     0.494260000000     0.493360000000     0.025690000000     0.845578   
Cu12     Cu     0.495760000000     0.493610000000     0.962570000000     0.85529    
H1       H      0.602380000000     0.491680000000     0.051110000000     0.0262521  
H2       H      0.887160000000     0.543270000000     0.992300000000     0.0273457  
H3       H      0.712950000000     0.454090000000     0.037170000000     0.0392371  
H4       H      0.776370000000     0.530000000000     0.957310000000     0.0389015  
H5       H      0.825580000000     0.545270000000     0.993990000000     0.054048   
H6       H      0.713870000000     0.531460000000     0.958040000000     0.0388902  
H7       H      0.821870000000     0.435360000000     0.998480000000     0.0591663  
H8       H      0.664540000000     0.491810000000     0.052380000000     0.0538189  
H9       H      0.666010000000     0.493900000000     0.941920000000     0.0542208  
H10      H      0.775500000000     0.453310000000     0.037090000000     0.0401457  
H11      H      0.604010000000     0.494110000000     0.941450000000     0.0270228  
H12      H      0.104250000000     0.437980000000     0.992570000000     0.0287777  
H13      H      0.386840000000     0.490820000000     0.046420000000     0.0272979  
H14      H      0.212910000000     0.535580000000     0.956610000000     0.039234   
H15      H      0.276390000000     0.454470000000     0.031130000000     0.0392371  
H16      H      0.325180000000     0.491450000000     0.047970000000     0.0541285  
H17      H      0.213840000000     0.454260000000     0.031690000000     0.0395384  
H18      H      0.322260000000     0.498850000000     0.938200000000     0.0589965  
H19      H      0.166300000000     0.438800000000     0.993210000000     0.0550253  
H20      H      0.164140000000     0.549270000000     0.994110000000     0.0539225  
H21      H      0.275420000000     0.536400000000     0.956750000000     0.0398384  
H22      H      0.102060000000     0.547660000000     0.993100000000     0.0264315  
H23      H      0.493670000000     0.601110000000     0.049680000000     0.0264109  
H24      H      0.445630000000     0.884900000000     0.002210000000     0.0279247  
H25      H      0.536760000000     0.712020000000     0.957330000000     0.039169   
H26      H      0.459740000000     0.774260000000     0.037050000000     0.0388227  
H27      H      0.444480000000     0.823370000000     0.000670000000     0.0542471  
H28      H      0.458220000000     0.711810000000     0.035320000000     0.0388556  
H29      H      0.554470000000     0.821090000000     0.997130000000     0.0586603  
H30      H      0.494680000000     0.663100000000     0.050820000000     0.0538485  
H31      H      0.499080000000     0.664390000000     0.940410000000     0.0543539  
H32      H      0.537550000000     0.774550000000     0.958340000000     0.0397883  
H33      H      0.498450000000     0.602250000000     0.940090000000     0.0278903  
H34      H      0.494630000000     0.385530000000     0.048960000000     0.0264916  
H35      H      0.547280000000     0.102200000000     0.002580000000     0.0280676  
H36      H      0.456380000000     0.274510000000     0.954850000000     0.0398768  
H37      H      0.531730000000     0.213050000000     0.036740000000     0.039142   
H38      H      0.548270000000     0.163770000000     0.000660000000     0.0545557  
H39      H      0.532600000000     0.275540000000     0.035080000000     0.0390827  
H40      H      0.438380000000     0.165640000000     0.994880000000     0.0591104  
H41      H      0.494470000000     0.323530000000     0.049720000000     0.0541494  
H42      H      0.494230000000     0.322820000000     0.939240000000     0.0547334  
H43      H      0.456160000000     0.211950000000     0.955900000000     0.040289   
H44      H      0.494060000000     0.385000000000     0.939270000000     0.0279581  
H45      H      0.441820000000     0.990370000000     0.892520000000     0.0281637  
H46      H      0.493870000000     0.948500000000     0.607680000000     0.02731    
H47      H      0.535400000000     0.035270000000     0.783730000000     0.0396896  
H48      H      0.457370000000     0.958960000000     0.718580000000     0.0390008  
H49      H      0.494390000000     0.945350000000     0.669230000000     0.0541214  
H50      H      0.457970000000     0.956220000000     0.781070000000     0.0391346  
H51      H      0.497350000000     0.055220000000     0.675080000000     0.0591686  
H52      H      0.441470000000     0.991480000000     0.830450000000     0.0547788  
H53      H      0.551840000000     0.997110000000     0.830660000000     0.0546267  
H54      H      0.535540000000     0.037250000000     0.721290000000     0.0401311  
H55      H      0.551350000000     0.996430000000     0.892710000000     0.0281664  
H56      H      0.551460000000     0.996430000000     0.108870000000     0.0280048  
H57      H      0.493810000000     0.948280000000     0.394180000000     0.0274227  
H58      H      0.535910000000     0.034920000000     0.218060000000     0.0395287  
H59      H      0.457510000000     0.958880000000     0.283090000000     0.0390162  
H60      H      0.494370000000     0.945070000000     0.332590000000     0.0540884  
H61      H      0.458020000000     0.956320000000     0.220580000000     0.0390414  
H62      H      0.498050000000     0.054910000000     0.326670000000     0.059018   
H63      H      0.552040000000     0.996930000000     0.170920000000     0.054529   
H64      H      0.441650000000     0.991790000000     0.171280000000     0.0545775  
H65      H      0.536130000000     0.036730000000     0.280490000000     0.0400688  
H66      H      0.441910000000     0.990880000000     0.109190000000     0.0279323  
H67      H      0.993960000000     0.438340000000     0.883270000000     0.0285751  
H68      H      0.945920000000     0.495230000000     0.600180000000     0.0274435  
H69      H      0.957430000000     0.455670000000     0.772620000000     0.0394884  
H70      H      0.034200000000     0.538140000000     0.713780000000     0.0398886  
H71      H      0.943500000000     0.494680000000     0.661790000000     0.0541881  
H72      H      0.032990000000     0.536450000000     0.776250000000     0.0393509  
H73      H      0.053250000000     0.501580000000     0.666410000000     0.0589041  
H74      H      0.994400000000     0.439550000000     0.821170000000     0.0549147  
H75      H      0.994350000000     0.550010000000     0.824050000000     0.0539235  
H76      H      0.959330000000     0.456730000000     0.710090000000     0.0392608  
H77      H      0.994270000000     0.548000000000     0.886090000000     0.0264225  
H78      H      0.943430000000     0.498480000000     0.385180000000     0.0262931  
H79      H      0.992820000000     0.543270000000     0.100580000000     0.0274427  
H80      H      0.036840000000     0.455520000000     0.275320000000     0.0393769  
H81      H      0.956450000000     0.530110000000     0.211050000000     0.0389227  
H82      H      0.993340000000     0.545390000000     0.162130000000     0.0541148  
H83      H      0.957360000000     0.532540000000     0.273530000000     0.0387172  
H84      H      0.998850000000     0.435530000000     0.166150000000     0.0592415  
H85      H      0.942350000000     0.496750000000     0.323120000000     0.0539095  
H86      H      0.052820000000     0.494460000000     0.322000000000     0.05412    
H87      H      0.036620000000     0.453840000000     0.212840000000     0.0399648  
H88      H      0.053090000000     0.495780000000     0.384040000000     0.0269952  
H89      H      0.387590000000     0.058760000000     0.500360000000     0.0295622  
H90      H      0.102750000000     0.997250000000     0.551410000000     0.0307922  
H91      H      0.277330000000     0.043960000000     0.463790000000     0.0400345  
H92      H      0.214490000000     0.963140000000     0.539140000000     0.0396261  
H93      H      0.164380000000     0.999110000000     0.554220000000     0.0555553  
H94      H      0.277030000000     0.964280000000     0.540600000000     0.0392596  
H95      H      0.169440000000     0.004360000000     0.444410000000     0.0592184  
H96      H      0.325490000000     0.059330000000     0.501240000000     0.0553535  
H97      H      0.325230000000     0.948850000000     0.503060000000     0.054095   
H98      H      0.214860000000     0.043480000000     0.463040000000     0.0405246  
H99      H      0.387280000000     0.949080000000     0.502560000000     0.0264294  
H100     H      0.603490000000     0.947970000000     0.503120000000     0.0265032  
H101     H      0.888600000000     0.995950000000     0.551570000000     0.0303971  
H102     H      0.714100000000     0.041520000000     0.463610000000     0.0399036  
H103     H      0.776660000000     0.961130000000     0.539690000000     0.0395368  
H104     H      0.826940000000     0.997380000000     0.554410000000     0.0554131  
H105     H      0.714080000000     0.962560000000     0.541160000000     0.0392588  
H106     H      0.821760000000     0.000980000000     0.444540000000     0.059036   
H107     H      0.665570000000     0.947160000000     0.503670000000     0.0540856  
H108     H      0.666300000000     0.057630000000     0.501300000000     0.0552759  
H109     H      0.776570000000     0.040710000000     0.462790000000     0.0404013  
H110     H      0.604220000000     0.057630000000     0.500420000000     0.029617   
H111     H      0.054940000000     0.606270000000     0.491550000000     0.0281409  
H112     H      0.994000000000     0.891470000000     0.441450000000     0.030326   
H113     H      0.040940000000     0.716470000000     0.528080000000     0.0396686  
H114     H      0.959390000000     0.779670000000     0.453800000000     0.0394342  
H115     H      0.995550000000     0.829820000000     0.438370000000     0.0551818  
H116     H      0.960230000000     0.717090000000     0.452350000000     0.0389693  
H117     H      0.001780000000     0.824300000000     0.548110000000     0.0589644  
H118     H      0.055640000000     0.668340000000     0.490350000000     0.0545607  
H119     H      0.945140000000     0.668870000000     0.490230000000     0.0539968  
H120     H      0.040710000000     0.778940000000     0.528850000000     0.040153   
H121     H      0.945250000000     0.606790000000     0.491060000000     0.0264094  
H122     H      0.944150000000     0.390410000000     0.491990000000     0.0264957  
H123     H      0.992970000000     0.105680000000     0.442580000000     0.0307387  
H124     H      0.958670000000     0.279850000000     0.453980000000     0.0393136  
H125     H      0.037550000000     0.217470000000     0.531710000000     0.0405499  
H126     H      0.994080000000     0.167350000000     0.440090000000     0.0555541  
H127     H      0.038110000000     0.279950000000     0.531040000000     0.0399245  
H128     H      0.998160000000     0.171920000000     0.549970000000     0.0593081  
H129     H      0.943430000000     0.328330000000     0.491690000000     0.0542871  
H130     H      0.053910000000     0.327740000000     0.493090000000     0.0547805  
H131     H      0.957500000000     0.217270000000     0.455300000000     0.0397269  
H132     H      0.053840000000     0.389820000000     0.493720000000     0.0279768  
N1       N      0.891090000000     0.488260000000     0.994610000000    -0.191978   
N2       N      0.598520000000     0.492920000000     0.996230000000    -0.193534   
N3       N      0.901850000000     0.392770000000     0.999400000000    -0.0952228  
N4       N      0.391120000000     0.494660000000     0.991530000000    -0.192085   
N5       N      0.098480000000     0.492730000000     0.992790000000    -0.19329    
N6       N      0.402410000000     0.502190000000     0.896240000000    -0.0981498  
N7       N      0.500610000000     0.889620000000     0.000250000000    -0.192068   
N8       N      0.496000000000     0.597010000000     0.994820000000    -0.193384   
N9       N      0.595990000000     0.901680000000     0.997020000000    -0.098088   
N10      N      0.492370000000     0.097310000000     0.999590000000    -0.191945   
N11      N      0.494380000000     0.389940000000     0.994080000000    -0.193356   
N12      N      0.397110000000     0.084950000000     0.994310000000    -0.0977528  
N13      N      0.495650000000     0.003600000000     0.604830000000    -0.19208    
N14      N      0.496570000000     0.993440000000     0.897280000000    -0.193178   
N15      N      0.498670000000     0.099390000000     0.596050000000    -0.096928   
N16      N      0.495920000000     0.003370000000     0.396970000000    -0.19189    
N17      N      0.496670000000     0.993690000000     0.104350000000    -0.193098   
N18      N      0.499670000000     0.099150000000     0.405620000000    -0.0971487  
N19      N      0.000890000000     0.498870000000     0.596730000000    -0.191896   
N20      N      0.994180000000     0.493050000000     0.889350000000    -0.193194   
N21      N      0.096300000000     0.506510000000     0.586870000000    -0.0981453  
N22      N      0.995800000000     0.488270000000     0.096770000000    -0.191996   
N23      N      0.998300000000     0.497170000000     0.389280000000    -0.193609   
N24      N      0.001080000000     0.392780000000     0.086270000000    -0.0952366  
N25      N      0.099570000000     0.000010000000     0.496380000000    -0.191509   
N26      N      0.392110000000     0.003910000000     0.501380000000    -0.193131   
N27      N      0.090220000000     0.004840000000     0.400700000000    -0.0968625  
N28      N      0.891710000000     0.998020000000     0.496510000000    -0.191618   
N29      N      0.599180000000     0.002830000000     0.501660000000    -0.193109   
N30      N      0.900890000000     0.000820000000     0.400710000000    -0.0971347  
N31      N      0.997250000000     0.894400000000     0.496460000000    -0.191606   
N32      N      0.000070000000     0.601860000000     0.491440000000    -0.193194   
N33      N      0.003250000000     0.903300000000     0.592130000000    -0.0972456  
N34      N      0.995270000000     0.102250000000     0.497610000000    -0.191637   
N35      N      0.999020000000     0.394790000000     0.492910000000    -0.193392   
N36      N      0.998810000000     0.092500000000     0.593320000000    -0.0967952  
O1       O      0.995240000000     0.049960000000     0.525540000000    -0.390677   
O2       O      0.996290000000     0.946360000000     0.524950000000    -0.39104    
O3       O      0.047750000000     0.998710000000     0.525030000000    -0.392554   
O4       O      0.943600000000     0.997660000000     0.525100000000    -0.392999   
O5       O      0.943820000000     0.998060000000     0.468260000000    -0.390893   
O6       O      0.047430000000     0.999100000000     0.468180000000    -0.39049    
O7       O      0.996140000000     0.946410000000     0.468110000000    -0.392885   
O8       O      0.995110000000     0.050560000000     0.468700000000    -0.392685   
O9       O      0.970760000000     0.446530000000     0.493330000000    -0.397173   
O10      O      0.971300000000     0.550420000000     0.492770000000    -0.397103   
O11      O      0.970370000000     0.498190000000     0.441200000000    -0.397157   
O12      O      0.971850000000     0.498690000000     0.545150000000    -0.396368   
O13      O      0.028710000000     0.498710000000     0.544310000000    -0.390004   
O14      O      0.027430000000     0.497630000000     0.440510000000    -0.397988   
O15      O      0.028360000000     0.550130000000     0.491880000000    -0.395923   
O16      O      0.027830000000     0.446230000000     0.492900000000    -0.396094   
O17      O      0.547420000000     0.974620000000     0.501150000000    -0.397013   
O18      O      0.443560000000     0.975180000000     0.500990000000    -0.397397   
O19      O      0.495540000000     0.974990000000     0.448940000000    -0.39593    
O20      O      0.495390000000     0.975120000000     0.552960000000    -0.396359   
O21      O      0.495760000000     0.031990000000     0.552750000000    -0.390542   
O22      O      0.495900000000     0.031850000000     0.449000000000    -0.390629   
O23      O      0.443830000000     0.032240000000     0.500840000000    -0.39469    
O24      O      0.547760000000     0.031680000000     0.500970000000    -0.394572   
O25      O      0.525080000000     0.994690000000     0.052720000000    -0.396243   
O26      O      0.525040000000     0.994670000000     0.948870000000    -0.396179   
O27      O      0.522770000000     0.046570000000     0.000720000000    -0.396798   
O28      O      0.527120000000     0.942750000000     0.000710000000    -0.38926    
O29      O      0.470300000000     0.940390000000     0.000980000000    -0.397361   
O30      O      0.465950000000     0.044150000000     0.000460000000    -0.389263   
O31      O      0.468040000000     0.992030000000     0.948860000000    -0.395641   
O32      O      0.468070000000     0.992440000000     0.052780000000    -0.395833   
O33      O      0.046290000000     0.520180000000     0.993260000000    -0.396787   
O34      O      0.942380000000     0.517730000000     0.993930000000    -0.396668   
O35      O      0.994660000000     0.517690000000     0.045480000000    -0.396954   
O36      O      0.994000000000     0.520280000000     0.941640000000    -0.397188   
O37      O      0.995010000000     0.463240000000     0.940250000000    -0.395962   
O38      O      0.996170000000     0.460870000000     0.044120000000    -0.388522   
O39      O      0.943720000000     0.460900000000     0.992880000000    -0.389133   
O40      O      0.047510000000     0.463150000000     0.991790000000    -0.396354   
O41      O      0.494070000000     0.441510000000     0.022520000000    -0.39828    
O42      O      0.494630000000     0.545240000000     0.022900000000    -0.398126   
O43      O      0.442320000000     0.493680000000     0.021250000000    -0.396053   
O44      O      0.546360000000     0.493040000000     0.023820000000    -0.39651    
O45      O      0.547530000000     0.493120000000     0.966760000000    -0.398634   
O46      O      0.443860000000     0.494210000000     0.964410000000    -0.390654   
O47      O      0.496260000000     0.545610000000     0.965860000000    -0.395334   
O48      O      0.495130000000     0.441560000000     0.965470000000    -0.395325   


