data_structure

_audit_creation_method RASPA-1.0
_audit_creation_date 2023-5-19
_audit_author_name 'Poobodin Mano'

_cell_length_a    39.0508
_cell_length_b    39.0525
_cell_length_c    39.0501
_cell_angle_alpha 90
_cell_angle_beta  90
_cell_angle_gamma 90
_cell_volume      59552.6

_symmetry_cell_setting          triclinic
_symmetry_space_group_name_Hall 'P 1'
_symmetry_space_group_name_H-M  'P 1'
_symmetry_Int_Tables_number     1

_symmetry_equiv_pos_as_xyz 'x,y,z'

loop_
_atom_site_label
_atom_site_type_symbol
_atom_site_fract_x
_atom_site_fract_y
_atom_site_fract_z
_atom_site_charge
C1       C      0.989550000000     0.060120000000     0.498720000000     0.40608    
C2       C      0.990640000000     0.923340000000     0.493930000000     0.406303   
C3       C      0.921520000000     0.991390000000     0.494690000000     0.406035   
C4       C      0.058330000000     0.992550000000     0.498640000000     0.406709   
C5       C      0.988300000000     0.423400000000     0.499340000000     0.406579   
C6       C      0.993010000000     0.560190000000     0.497340000000     0.406358   
C7       C      0.987040000000     0.491160000000     0.429690000000     0.405948   
C8       C      0.995000000000     0.493140000000     0.566540000000     0.406503   
C9       C      0.558260000000     0.001550000000     0.493690000000     0.406055   
C10      C      0.421450000000     0.997810000000     0.492370000000     0.405972   
C11      C      0.490180000000     0.999650000000     0.424670000000     0.406125   
C12      C      0.489100000000     0.999290000000     0.561330000000     0.406118   
C13      C      0.501650000000     0.997860000000     0.061580000000     0.406502   
C14      C      0.500900000000     0.997560000000     0.924510000000     0.40637    
C15      C      0.498710000000     0.066440000000     0.993130000000     0.406546   
C16      C      0.502870000000     0.929610000000     0.993320000000     0.406117   
C17      C      0.999700000000     0.493010000000     0.066490000000     0.405693   
C18      C      0.999250000000     0.494200000000     0.929830000000     0.406137   
C19      C      0.068110000000     0.493340000000     0.997540000000     0.405646   
C20      C      0.931450000000     0.494070000000     0.998350000000     0.406013   
C21      C      0.500180000000     0.429630000000     0.994060000000     0.406346   
C22      C      0.499690000000     0.566460000000     0.989870000000     0.406435   
C23      C      0.431320000000     0.497720000000     0.987770000000     0.405857   
C24      C      0.568120000000     0.498400000000     0.996690000000     0.406569   
C25      C      0.657900000000     0.500970000000     0.029010000000    -0.103479   
C26      C      0.878200000000     0.464200000000     0.997950000000     0.0726607  
C27      C      0.878820000000     0.524900000000     0.998370000000     0.0728224  
C28      C      0.842430000000     0.464120000000     0.997770000000    -0.0931718  
C29      C      0.767680000000     0.472650000000     0.977490000000    -0.0356601  
C30      C      0.731880000000     0.473220000000     0.977510000000    -0.0343759  
C31      C      0.786360000000     0.495610000000     0.997990000000    -0.00646415 
C32      C      0.843090000000     0.525740000000     0.998230000000    -0.0933052  
C33      C      0.713970000000     0.496690000000     0.998110000000    -0.00871293 
C34      C      0.657380000000     0.494120000000     0.968040000000    -0.0957085  
C35      C      0.732660000000     0.519650000000     0.018580000000    -0.0343108  
C36      C      0.621710000000     0.494860000000     0.968690000000     0.0719228  
C37      C      0.621920000000     0.501730000000     0.029250000000     0.102394   
C38      C      0.768420000000     0.519130000000     0.018510000000    -0.0354989  
C39      C      0.824410000000     0.495130000000     0.997950000000     0.0496831  
C40      C      0.675910000000     0.497180000000     0.998370000000     0.0547205  
C41      C      0.341110000000     0.498760000000     0.956470000000    -0.103035   
C42      C      0.121030000000     0.462900000000     0.995890000000     0.0725818  
C43      C      0.121070000000     0.523600000000     0.995900000000     0.0726243  
C44      C      0.156770000000     0.462420000000     0.994330000000    -0.0931115  
C45      C      0.232530000000     0.470230000000     0.011100000000    -0.0356234  
C46      C      0.268290000000     0.470670000000     0.009660000000    -0.0343438  
C47      C      0.213130000000     0.493290000000     0.991410000000    -0.00647997 
C48      C      0.156790000000     0.524040000000     0.994230000000    -0.0931397  
C49      C      0.285490000000     0.494090000000     0.988390000000    -0.00869309 
C50      C      0.342520000000     0.492590000000     0.017500000000    -0.0958134  
C51      C      0.266100000000     0.516950000000     0.968480000000    -0.0343998  
C52      C      0.378140000000     0.493860000000     0.016390000000     0.0721109  
C53      C      0.377120000000     0.500010000000     0.955770000000     0.101844   
C54      C      0.230340000000     0.516590000000     0.970000000000    -0.03557    
C55      C      0.175110000000     0.493230000000     0.993340000000     0.0495644  
C56      C      0.323540000000     0.495000000000     0.987400000000     0.0545081  
C57      C      0.503160000000     0.657270000000     0.960620000000    -0.103314   
C58      C      0.473620000000     0.876140000000     0.994960000000     0.0730021  
C59      C      0.534290000000     0.877220000000     0.993030000000     0.0728934  
C60      C      0.473780000000     0.840410000000     0.995580000000    -0.0932687  
C61      C      0.483150000000     0.766130000000     0.016580000000    -0.035599   
C62      C      0.482740000000     0.730350000000     0.015980000000    -0.0342893  
C63      C      0.505310000000     0.784560000000     0.995000000000    -0.00647568 
C64      C      0.535370000000     0.841440000000     0.993440000000    -0.0929855  
C65      C      0.504350000000     0.712200000000     0.993650000000    -0.00873551 
C66      C      0.501110000000     0.654690000000     0.021880000000    -0.0955595  
C67      C      0.526800000000     0.730620000000     0.972350000000    -0.0344369  
C68      C      0.499820000000     0.619070000000     0.019920000000     0.0718879  
C69      C      0.501590000000     0.621350000000     0.959030000000     0.101998   
C70      C      0.527340000000     0.766390000000     0.973080000000    -0.0355136  
C71      C      0.504870000000     0.822600000000     0.994800000000     0.0497748  
C72      C      0.503020000000     0.674210000000     0.992080000000     0.0546513  
C73      C      0.469110000000     0.157180000000     0.995280000000    -0.103593   
C74      C      0.498820000000     0.377360000000     0.025600000000     0.0729139  
C75      C      0.503530000000     0.376070000000     0.965090000000     0.0730515  
C76      C      0.499490000000     0.341600000000     0.026860000000    -0.0931301  
C77      C      0.525170000000     0.266130000000     0.975960000000    -0.0355867  
C78      C      0.524800000000     0.230340000000     0.975830000000    -0.0343143  
C79      C      0.502730000000     0.284610000000     0.997210000000    -0.00647608 
C80      C      0.504400000000     0.340340000000     0.965440000000    -0.0932262  
C81      C      0.501870000000     0.212230000000     0.996840000000    -0.00875712 
C82      C      0.530410000000     0.154790000000     0.994880000000    -0.0955961  
C83      C      0.479730000000     0.230710000000     0.018400000000    -0.03436    
C84      C      0.528600000000     0.119150000000     0.993890000000     0.0719192  
C85      C      0.467670000000     0.121240000000     0.994120000000     0.102281   
C86      C      0.480200000000     0.266480000000     0.018630000000    -0.035434   
C87      C      0.502350000000     0.322650000000     0.996540000000     0.0497829  
C88      C      0.500510000000     0.174230000000     0.995770000000     0.0548036  
C89      C      0.527610000000     0.995040000000     0.832940000000    -0.10346    
C90      C      0.487910000000     0.029210000000     0.614570000000     0.0727717  
C91      C      0.489430000000     0.968530000000     0.614000000000     0.0728434  
C92      C      0.487990000000     0.029330000000     0.650360000000    -0.0929095  
C93      C      0.469940000000     0.020560000000     0.725820000000    -0.0355922  
C94      C      0.471470000000     0.020300000000     0.761610000000    -0.0343048  
C95      C      0.490170000000     0.997900000000     0.706460000000    -0.00635391 
C96      C      0.489570000000     0.967730000000     0.649740000000    -0.0931791  
C97      C      0.493380000000     0.997490000000     0.778810000000    -0.00868227 
C98      C      0.466620000000     0.000250000000     0.837130000000    -0.0952402  
C99      C      0.513380000000     0.974680000000     0.759430000000    -0.0343421  
C100     C      0.469470000000     0.999920000000     0.872740000000     0.0715589  
C101     C      0.530080000000     0.994690000000     0.868820000000     0.102286   
C102     C      0.511810000000     0.974880000000     0.723710000000    -0.0356162  
C103     C      0.489020000000     0.998350000000     0.668410000000     0.0495743  
C104     C      0.495830000000     0.997710000000     0.816790000000     0.0545382  
C105     C      0.529230000000     0.996060000000     0.152900000000    -0.103603   
C106     C      0.489580000000     0.029840000000     0.371590000000     0.072841   
C107     C      0.491230000000     0.969160000000     0.371880000000     0.0729197  
C108     C      0.489960000000     0.030120000000     0.335810000000    -0.092937   
C109     C      0.472030000000     0.021500000000     0.260320000000    -0.0356227  
C110     C      0.473470000000     0.021240000000     0.224540000000    -0.0342797  
C111     C      0.492410000000     0.998930000000     0.279620000000    -0.00647467 
C112     C      0.491680000000     0.968520000000     0.336160000000    -0.0934327  
C113     C      0.495430000000     0.998520000000     0.207290000000    -0.00876542 
C114     C      0.468170000000     0.000810000000     0.149230000000    -0.0956448  
C115     C      0.515670000000     0.975870000000     0.226600000000    -0.0344391  
C116     C      0.470700000000     0.000310000000     0.113620000000     0.0718658  
C117     C      0.531380000000     0.995540000000     0.117000000000     0.102342   
C118     C      0.514180000000     0.976080000000     0.262320000000    -0.035526   
C119     C      0.491170000000     0.999220000000     0.317640000000     0.0496716  
C120     C      0.497580000000     0.998590000000     0.169300000000     0.0547442  
C121     C      0.027020000000     0.497160000000     0.656340000000    -0.103491   
C122     C      0.998580000000     0.524930000000     0.877100000000     0.0727284  
C123     C      0.997820000000     0.464240000000     0.876690000000     0.0728121  
C124     C      0.997780000000     0.525640000000     0.841350000000    -0.0932844  
C125     C      0.016920000000     0.518200000000     0.766300000000    -0.0355255  
C126     C      0.016740000000     0.518100000000     0.730530000000    -0.0343233  
C127     C      0.996290000000     0.495190000000     0.784760000000    -0.00648974 
C128     C      0.996930000000     0.464020000000     0.840940000000    -0.0933226  
C129     C      0.995900000000     0.495040000000     0.712370000000    -0.00877227 
C130     C      0.965910000000     0.491690000000     0.655760000000    -0.0957095  
C131     C      0.975040000000     0.472230000000     0.730810000000    -0.034357   
C132     C      0.966690000000     0.491510000000     0.620070000000     0.0718632  
C133     C      0.027400000000     0.496980000000     0.620360000000     0.102475   
C134     C      0.975280000000     0.472260000000     0.766610000000    -0.035688   
C135     C      0.996920000000     0.494960000000     0.822810000000     0.0497236  
C136     C      0.996240000000     0.494570000000     0.674320000000     0.0547166  
C137     C      0.956780000000     0.493290000000     0.339070000000    -0.103066   
C138     C      0.998400000000     0.462100000000     0.119100000000     0.0727072  
C139     C      0.997880000000     0.522790000000     0.119760000000     0.0725736  
C140     C      0.996760000000     0.461230000000     0.154820000000    -0.093213   
C141     C      0.013130000000     0.468140000000     0.230610000000    -0.0355525  
C142     C      0.011280000000     0.467770000000     0.266350000000    -0.0344078  
C143     C      0.993360000000     0.491350000000     0.211480000000    -0.00653194 
C144     C      0.996120000000     0.522840000000     0.155490000000    -0.0931445  
C145     C      0.989520000000     0.490540000000     0.283800000000    -0.00866846 
C146     C      0.017850000000     0.487840000000     0.341150000000    -0.09584    
C147     C      0.969600000000     0.513640000000     0.264680000000    -0.0344737  
C148     C      0.016250000000     0.488150000000     0.376760000000     0.0719971  
C149     C      0.955570000000     0.493470000000     0.375090000000     0.101724   
C150     C      0.971550000000     0.514080000000     0.228930000000    -0.0355143  
C151     C      0.995460000000     0.491820000000     0.173480000000     0.0496258  
C152     C      0.988000000000     0.490490000000     0.321840000000     0.0545348  
C153     C      0.149040000000     0.995640000000     0.528050000000    -0.103602   
C154     C      0.369130000000     0.966330000000     0.491740000000     0.0727056  
C155     C      0.367930000000     0.027020000000     0.492280000000     0.0728914  
C156     C      0.333360000000     0.965180000000     0.491790000000    -0.0931572  
C157     C      0.257900000000     0.971810000000     0.472830000000    -0.0356973  
C158     C      0.222110000000     0.971320000000     0.473790000000    -0.0343711  
C159     C      0.276430000000     0.995030000000     0.493180000000    -0.00652219 
C160     C      0.332200000000     0.026790000000     0.492420000000    -0.0933407  
C161     C      0.204090000000     0.993900000000     0.495270000000    -0.00882236 
C162     C      0.146640000000     0.990540000000     0.466950000000    -0.0957401  
C163     C      0.222640000000     0.017140000000     0.515560000000    -0.034377   
C164     C      0.110990000000     0.990560000000     0.468780000000     0.0718965  
C165     C      0.113090000000     0.995650000000     0.529490000000     0.102349   
C166     C      0.258370000000     0.017700000000     0.514520000000    -0.0355149  
C167     C      0.314450000000     0.995640000000     0.492310000000     0.049685   
C168     C      0.166090000000     0.993200000000     0.496740000000     0.0547886  
C169     C      0.649140000000     0.030490000000     0.496920000000    -0.103376   
C170     C      0.869070000000     0.992600000000     0.463360000000     0.0726246  
C171     C      0.868080000000     0.990750000000     0.524030000000     0.0729146  
C172     C      0.833280000000     0.993320000000     0.462370000000    -0.0928226  
C173     C      0.757380000000     0.975590000000     0.468700000000    -0.0357     
C174     C      0.721580000000     0.977000000000     0.468710000000    -0.0343445  
C175     C      0.776440000000     0.994640000000     0.492580000000    -0.00636772 
C176     C      0.832360000000     0.991530000000     0.523960000000    -0.0933078  
C177     C      0.704080000000     0.997640000000     0.492470000000    -0.0087299  
C178     C      0.646430000000     0.969730000000     0.488840000000    -0.0956825  
C179     C      0.723180000000     0.016730000000     0.516270000000    -0.034332   
C180     C      0.610790000000     0.971660000000     0.489620000000     0.0716872  
C181     C      0.613190000000     0.032020000000     0.497700000000     0.102255   
C182     C      0.758910000000     0.015240000000     0.516330000000    -0.0355433  
C183     C      0.814480000000     0.993020000000     0.492920000000     0.04963    
C184     C      0.666050000000     0.999300000000     0.492550000000     0.0545781  
C185     C      0.994150000000     0.832660000000     0.464260000000    -0.103602   
C186     C      0.964070000000     0.613790000000     0.499580000000     0.0731888  
C187     C      0.024610000000     0.612430000000     0.495340000000     0.0729416  
C188     C      0.964400000000     0.649510000000     0.500000000000    -0.09329    
C189     C      0.974630000000     0.723720000000     0.520420000000    -0.0356616  
C190     C      0.974370000000     0.759490000000     0.519890000000    -0.0342934  
C191     C      0.996130000000     0.705220000000     0.498240000000    -0.00642584 
C192     C      0.025860000000     0.648200000000     0.495580000000    -0.0929808  
C193     C      0.995520000000     0.777580000000     0.497080000000    -0.00881109 
C194     C      0.992930000000     0.835000000000     0.525550000000    -0.0957709  
C195     C      0.017340000000     0.759100000000     0.475190000000    -0.0343026  
C196     C      0.991600000000     0.870620000000     0.523740000000     0.071882   
C197     C      0.992670000000     0.868580000000     0.462830000000     0.102234   
C198     C      0.017690000000     0.723320000000     0.475810000000    -0.035554   
C199     C      0.995520000000     0.667190000000     0.498030000000     0.0497251  
C200     C      0.994340000000     0.815590000000     0.495660000000     0.0547916  
C201     C      0.958480000000     0.332800000000     0.503550000000    -0.103355   
C202     C      0.989130000000     0.112240000000     0.530560000000     0.0727944  
C203     C      0.991260000000     0.113850000000     0.469920000000     0.0729784  
C204     C      0.989740000000     0.147990000000     0.531970000000    -0.0930597  
C205     C      0.013040000000     0.223750000000     0.480270000000    -0.0355652  
C206     C      0.012750000000     0.259540000000     0.480400000000    -0.0342581  
C207     C      0.991690000000     0.205170000000     0.502530000000    -0.00644562 
C208     C      0.991990000000     0.149580000000     0.470410000000    -0.0932332  
C209     C      0.991020000000     0.277560000000     0.502710000000    -0.00868269 
C210     C      0.019650000000     0.334910000000     0.499420000000    -0.0955863  
C211     C      0.969980000000     0.258990000000     0.525270000000    -0.0344186  
C212     C      0.017940000000     0.370560000000     0.498620000000     0.0718635  
C213     C      0.957150000000     0.368750000000     0.502620000000     0.102028   
C214     C      0.970340000000     0.223210000000     0.525210000000    -0.0355055  
C215     C      0.991240000000     0.167120000000     0.501670000000     0.0497376  
C216     C      0.989760000000     0.315600000000     0.502000000000     0.0546438  
Cu1      Cu     0.990740000000     0.992910000000     0.465010000000     0.846566   
Cu2      Cu     0.988960000000     0.990740000000     0.527940000000     0.848184   
Cu3      Cu     0.959480000000     0.492990000000     0.499940000000     0.849243   
Cu4      Cu     0.022240000000     0.490810000000     0.496360000000     0.846376   
Cu5      Cu     0.490590000000     0.968020000000     0.492910000000     0.845848   
Cu6      Cu     0.488890000000     0.031090000000     0.493080000000     0.848416   
Cu7      Cu     0.532430000000     0.998860000000     0.992880000000     0.849678   
Cu8      Cu     0.469560000000     0.997000000000     0.993240000000     0.845713   
Cu9      Cu     0.999590000000     0.462060000000     0.997870000000     0.845453   
Cu10     Cu     0.999930000000     0.525220000000     0.998420000000     0.846997   
Cu11     Cu     0.497710000000     0.498870000000     0.023490000000     0.846523   
Cu12     Cu     0.501780000000     0.497000000000     0.960740000000     0.849034   
H1       H      0.892180000000     0.549240000000     0.998490000000     0.0256538  
H2       H      0.608990000000     0.492280000000     0.944140000000     0.0271886  
H3       H      0.782020000000     0.536930000000     0.034860000000     0.0380596  
H4       H      0.718230000000     0.455000000000     0.961680000000     0.0376788  
H5       H      0.670360000000     0.491560000000     0.943650000000     0.0536672  
H6       H      0.780720000000     0.454460000000     0.961120000000     0.0379363  
H7       H      0.672060000000     0.503080000000     0.052850000000     0.0580066  
H8       H      0.830220000000     0.550310000000     0.997920000000     0.0528715  
H9       H      0.829010000000     0.439850000000     0.997970000000     0.0528959  
H10      H      0.719650000000     0.538310000000     0.034450000000     0.0380005  
H11      H      0.891080000000     0.439610000000     0.997930000000     0.0255994  
H12      H      0.108000000000     0.548080000000     0.996540000000     0.0256866  
H13      H      0.391170000000     0.491690000000     0.040810000000     0.0267934  
H14      H      0.216150000000     0.534450000000     0.954220000000     0.0381394  
H15      H      0.282490000000     0.452510000000     0.025090000000     0.0376451  
H16      H      0.329920000000     0.490150000000     0.042090000000     0.0535948  
H17      H      0.220080000000     0.452170000000     0.028070000000     0.0379142  
H18      H      0.326600000000     0.500550000000     0.932810000000     0.057944   
H19      H      0.169950000000     0.548460000000     0.994030000000     0.0528727  
H20      H      0.169900000000     0.438010000000     0.993350000000     0.0528731  
H21      H      0.278570000000     0.535530000000     0.952090000000     0.0380945  
H22      H      0.107890000000     0.438450000000     0.996370000000     0.0256058  
H23      H      0.558490000000     0.890790000000     0.992110000000     0.0262773  
H24      H      0.498720000000     0.605530000000     0.044130000000     0.0272583  
H25      H      0.544520000000     0.779850000000     0.955960000000     0.0382958  
H26      H      0.465000000000     0.716910000000     0.032530000000     0.0378287  
H27      H      0.501120000000     0.666840000000     0.046820000000     0.0537364  
H28      H      0.466130000000     0.779380000000     0.034020000000     0.0381553  
H29      H      0.503850000000     0.672280000000     0.937210000000     0.0581128  
H30      H      0.559980000000     0.828650000000     0.993090000000     0.0531716  
H31      H      0.449590000000     0.826850000000     0.996160000000     0.0531486  
H32      H      0.544010000000     0.717340000000     0.955130000000     0.0382491  
H33      H      0.448920000000     0.888790000000     0.995490000000     0.0259622  
H34      H      0.505080000000     0.388640000000     0.940390000000     0.0261608  
H35      H      0.552870000000     0.105670000000     0.993480000000     0.0276453  
H36      H      0.462400000000     0.279950000000     0.035100000000     0.0380709  
H37      H      0.542010000000     0.216860000000     0.958760000000     0.0378956  
H38      H      0.555300000000     0.167020000000     0.995440000000     0.0539225  
H39      H      0.543110000000     0.279350000000     0.959440000000     0.0381153  
H40      H      0.445640000000     0.172100000000     0.995280000000     0.0579846  
H41      H      0.506140000000     0.326690000000     0.941350000000     0.0531748  
H42      H      0.498160000000     0.328940000000     0.051490000000     0.0530959  
H43      H      0.462040000000     0.217480000000     0.035170000000     0.0380622  
H44      H      0.496710000000     0.391010000000     0.049690000000     0.0258646  
H45      H      0.489920000000     0.944180000000     0.600680000000     0.0257841  
H46      H      0.445730000000     0.002040000000     0.886980000000     0.0272601  
H47      H      0.527980000000     0.957330000000     0.709600000000     0.038188   
H48      H      0.455910000000     0.038340000000     0.775800000000     0.0378716  
H49      H      0.441440000000     0.002020000000     0.825620000000     0.0536949  
H50      H      0.452750000000     0.038370000000     0.713310000000     0.0380364  
H51      H      0.550590000000     0.993380000000     0.817360000000     0.0579716  
H52      H      0.489880000000     0.943180000000     0.662630000000     0.0529652  
H53      H      0.487920000000     0.053610000000     0.663750000000     0.0530585  
H54      H      0.530220000000     0.956500000000     0.771900000000     0.0380102  
H55      H      0.487370000000     0.053780000000     0.601660000000     0.0259949  
H56      H      0.491650000000     0.944750000000     0.385090000000     0.0255426  
H57      H      0.446810000000     0.002170000000     0.099600000000     0.0270714  
H58      H      0.530480000000     0.958600000000     0.276400000000     0.0380457  
H59      H      0.457740000000     0.039170000000     0.210380000000     0.03776    
H60      H      0.443080000000     0.002460000000     0.160950000000     0.0536337  
H61      H      0.454750000000     0.039190000000     0.272870000000     0.0380035  
H62      H      0.552360000000     0.994660000000     0.168280000000     0.0580721  
H63      H      0.492130000000     0.944030000000     0.323150000000     0.0528354  
H64      H      0.489920000000     0.054470000000     0.322520000000     0.0530837  
H65      H      0.532560000000     0.957780000000     0.214080000000     0.0379998  
H66      H      0.488870000000     0.054350000000     0.384610000000     0.0260252  
H67      H      0.997910000000     0.439670000000     0.889630000000     0.0256408  
H68      H      0.942160000000     0.489100000000     0.607290000000     0.0271833  
H69      H      0.958810000000     0.454470000000     0.780070000000     0.0379869  
H70      H      0.032820000000     0.536270000000     0.717080000000     0.0379912  
H71      H      0.941440000000     0.489990000000     0.668710000000     0.053717   
H72      H      0.033620000000     0.535980000000     0.779500000000     0.0380748  
H73      H      0.050850000000     0.499130000000     0.670550000000     0.0580293  
H74      H      0.996750000000     0.439700000000     0.827620000000     0.0529782  
H75      H      0.997410000000     0.550150000000     0.828370000000     0.0528606  
H76      H      0.958890000000     0.453980000000     0.717570000000     0.0377737  
H77      H      0.999100000000     0.549300000000     0.890390000000     0.0255843  
H78      H      0.998320000000     0.547400000000     0.106920000000     0.0256163  
H79      H      0.040560000000     0.486070000000     0.390020000000     0.0269468  
H80      H      0.955710000000     0.532040000000     0.214930000000     0.038121   
H81      H      0.026730000000     0.449460000000     0.280320000000     0.0376828  
H82      H      0.042640000000     0.486030000000     0.328820000000     0.0535475  
H83      H      0.030420000000     0.450500000000     0.217980000000     0.0378856  
H84      H      0.933290000000     0.494980000000     0.324280000000     0.0579882  
H85      H      0.995650000000     0.547100000000     0.168930000000     0.0528685  
H86      H      0.995950000000     0.436660000000     0.167660000000     0.0529235  
H87      H      0.952840000000     0.531730000000     0.277360000000     0.038098   
H88      H      0.999100000000     0.437770000000     0.105730000000     0.0256665  
H89      H      0.380540000000     0.051750000000     0.492390000000     0.0257677  
H90      H      0.097480000000     0.988380000000     0.444620000000     0.0270553  
H91      H      0.271870000000     0.035670000000     0.530780000000     0.0381012  
H92      H      0.208540000000     0.952950000000     0.458050000000     0.0377476  
H93      H      0.158880000000     0.988940000000     0.442100000000     0.053641   
H94      H      0.271060000000     0.954240000000     0.455880000000     0.0379748  
H95      H      0.163950000000     0.997410000000     0.551470000000     0.0579891  
H96      H      0.318590000000     0.050960000000     0.492330000000     0.0529193  
H97      H      0.320660000000     0.940520000000     0.492050000000     0.0529434  
H98      H      0.209510000000     0.035130000000     0.532090000000     0.0380277  
H99      H      0.382740000000     0.942130000000     0.491590000000     0.0255975  
H100     H      0.880760000000     0.989670000000     0.548700000000     0.025803   
H101     H      0.597160000000     0.947670000000     0.486480000000     0.0266405  
H102     H      0.772830000000     0.030510000000     0.534830000000     0.0381698  
H103     H      0.707610000000     0.962200000000     0.449870000000     0.0377262  
H104     H      0.658530000000     0.944950000000     0.485810000000     0.0535262  
H105     H      0.770100000000     0.959240000000     0.450260000000     0.0381123  
H106     H      0.664160000000     0.053740000000     0.499620000000     0.0580159  
H107     H      0.818850000000     0.990700000000     0.548170000000     0.0529381  
H108     H      0.820490000000     0.994770000000     0.437800000000     0.0530675  
H109     H      0.710490000000     0.032580000000     0.535160000000     0.0380358  
H110     H      0.882610000000     0.993180000000     0.439130000000     0.0260227  
H111     H      0.048700000000     0.598740000000     0.493590000000     0.0259102  
H112     H      0.990770000000     0.884050000000     0.548030000000     0.0272275  
H113     H      0.034360000000     0.709830000000     0.458230000000     0.0381613  
H114     H      0.957090000000     0.772970000000     0.536890000000     0.0377603  
H115     H      0.993280000000     0.822770000000     0.550450000000     0.0537383  
H116     H      0.958010000000     0.710530000000     0.538290000000     0.0381532  
H117     H      0.994580000000     0.817750000000     0.440780000000     0.0579541  
H118     H      0.050500000000     0.660870000000     0.494310000000     0.0530427  
H119     H      0.940300000000     0.663160000000     0.501400000000     0.0532356  
H120     H      0.034220000000     0.772320000000     0.457590000000     0.0380186  
H121     H      0.939340000000     0.601250000000     0.501090000000     0.026299   
H122     H      0.991800000000     0.101410000000     0.445100000000     0.0259115  
H123     H      0.042210000000     0.383920000000     0.496730000000     0.0271176  
H124     H      0.953380000000     0.209670000000     0.542490000000     0.0380787  
H125     H      0.029080000000     0.273090000000     0.462540000000     0.0377224  
H126     H      0.044480000000     0.322580000000     0.498440000000     0.0536547  
H127     H      0.030080000000     0.210620000000     0.462760000000     0.0380699  
H128     H      0.934980000000     0.317990000000     0.504970000000     0.0580587  
H129     H      0.992640000000     0.163350000000     0.446340000000     0.0530672  
H130     H      0.989460000000     0.160520000000     0.556720000000     0.0529598  
H131     H      0.953230000000     0.272130000000     0.543050000000     0.0380353  
H132     H      0.988130000000     0.098460000000     0.554640000000     0.0259194  
N1       N      0.603560000000     0.498450000000     0.998780000000    -0.19444    
N2       N      0.896300000000     0.494370000000     0.998250000000    -0.193729   
N3       N      0.395870000000     0.497300000000     0.986040000000    -0.194338   
N4       N      0.103270000000     0.493260000000     0.996560000000    -0.19351    
N5       N      0.500260000000     0.601950000000     0.989020000000    -0.194214   
N6       N      0.503640000000     0.894460000000     0.993740000000    -0.193517   
N7       N      0.497750000000     0.101940000000     0.993630000000    -0.194212   
N8       N      0.500790000000     0.394490000000     0.994940000000    -0.193677   
N9       N      0.500710000000     0.997320000000     0.889010000000    -0.194272   
N10      N      0.488780000000     0.999040000000     0.596490000000    -0.193599   
N11      N      0.501810000000     0.997840000000     0.097080000000    -0.194407   
N12      N      0.490320000000     0.999580000000     0.389520000000    -0.193754   
N13      N      0.996930000000     0.493920000000     0.601980000000    -0.194447   
N14      N      0.998610000000     0.494460000000     0.894680000000    -0.193755   
N15      N      0.985650000000     0.490940000000     0.394200000000    -0.194171   
N16      N      0.998820000000     0.492640000000     0.101650000000    -0.193544   
N17      N      0.093800000000     0.992970000000     0.499540000000    -0.194544   
N18      N      0.386310000000     0.997020000000     0.492100000000    -0.193777   
N19      N      0.593750000000     0.002310000000     0.493800000000    -0.194362   
N20      N      0.886370000000     0.991500000000     0.493980000000    -0.193575   
N21      N      0.991560000000     0.887850000000     0.492910000000    -0.194279   
N22      N      0.993940000000     0.595330000000     0.497350000000    -0.193682   
N23      N      0.987220000000     0.387920000000     0.500190000000    -0.194288   
N24      N      0.989910000000     0.095270000000     0.499760000000    -0.193571   
O1       O      0.990330000000     0.044630000000     0.469720000000    -0.398456   
O2       O      0.991160000000     0.941020000000     0.466280000000    -0.394824   
O3       O      0.938630000000     0.992450000000     0.466580000000    -0.396013   
O4       O      0.042630000000     0.993170000000     0.469680000000    -0.396315   
O5       O      0.040820000000     0.991270000000     0.526370000000    -0.395164   
O6       O      0.937240000000     0.990480000000     0.523560000000    -0.39903    
O7       O      0.989560000000     0.938890000000     0.522960000000    -0.396513   
O8       O      0.988690000000     0.042810000000     0.526700000000    -0.396647   
O9       O      0.960710000000     0.441120000000     0.500540000000    -0.394767   
O10      O      0.964090000000     0.544650000000     0.499140000000    -0.39868    
O11      O      0.959660000000     0.492310000000     0.447810000000    -0.392262   
O12      O      0.965600000000     0.493540000000     0.551680000000    -0.396403   
O13      O      0.022210000000     0.491730000000     0.548250000000    -0.39489    
O14      O      0.016280000000     0.490190000000     0.444800000000    -0.398524   
O15      O      0.020980000000     0.542910000000     0.495740000000    -0.396083   
O16      O      0.017300000000     0.438930000000     0.497430000000    -0.396022   
O17      O      0.542480000000     0.972630000000     0.493300000000    -0.396957   
O18      O      0.438550000000     0.969680000000     0.492460000000    -0.397183   
O19      O      0.490890000000     0.971150000000     0.441070000000    -0.398706   
O20      O      0.490060000000     0.970880000000     0.544780000000    -0.398451   
O21      O      0.488510000000     0.027890000000     0.545060000000    -0.39677    
O22      O      0.489360000000     0.028170000000     0.441090000000    -0.396647   
O23      O      0.437150000000     0.026710000000     0.492620000000    -0.398784   
O24      O      0.540810000000     0.029370000000     0.493510000000    -0.394438   
O25      O      0.529740000000     0.998800000000     0.044660000000    -0.395571   
O26      O      0.529170000000     0.998670000000     0.941120000000    -0.395517   
O27      O      0.527700000000     0.050780000000     0.992890000000    -0.395539   
O28      O      0.530970000000     0.946760000000     0.992960000000    -0.39571    
O29      O      0.473970000000     0.945290000000     0.993430000000    -0.398697   
O30      O      0.471010000000     0.048850000000     0.993190000000    -0.395115   
O31      O      0.472450000000     0.996960000000     0.941140000000    -0.395513   
O32      O      0.473020000000     0.997220000000     0.045260000000    -0.395763   
O33      O      0.999780000000     0.464650000000     0.049810000000    -0.397854   
O34      O      0.999270000000     0.465550000000     0.946000000000    -0.398104   
O35      O      0.051590000000     0.464870000000     0.997550000000    -0.397093   
O36      O      0.947650000000     0.465420000000     0.998130000000    -0.397382   
O37      O      0.948050000000     0.522470000000     0.998570000000    -0.398524   
O38      O      0.051810000000     0.521910000000     0.998080000000    -0.398202   
O39      O      0.999650000000     0.522590000000     0.946460000000    -0.397871   
O40      O      0.999990000000     0.521690000000     0.050350000000    -0.397532   
O41      O      0.498160000000     0.446810000000     0.022060000000    -0.396514   
O42      O      0.497770000000     0.550760000000     0.018780000000    -0.396099   
O43      O      0.446160000000     0.498450000000     0.017150000000    -0.398202   
O44      O      0.549630000000     0.499090000000     0.023800000000    -0.394663   
O45      O      0.553440000000     0.497320000000     0.967220000000    -0.396738   
O46      O      0.449680000000     0.496890000000     0.960520000000    -0.392427   
O47      O      0.501540000000     0.548900000000     0.962210000000    -0.394361   
O48      O      0.501800000000     0.445270000000     0.965180000000    -0.398316   
S1       S      0.604490000000     0.507400000000     0.065750000000    -0.0178672  
S2       S      0.394110000000     0.506010000000     0.919130000000    -0.0166525  
S3       S      0.500680000000     0.605240000000     0.921510000000    -0.0164226  
S4       S      0.430210000000     0.105020000000     0.993150000000    -0.0183067  
S5       S      0.567710000000     0.989880000000     0.883970000000    -0.0177655  
S6       S      0.568920000000     0.991060000000     0.101530000000    -0.0174582  
S7       S      0.064040000000     0.501710000000     0.602940000000    -0.0178965  
S8       S      0.918460000000     0.497120000000     0.391710000000    -0.0166519  
S9       S      0.096800000000     0.000140000000     0.566670000000    -0.0178672  
S10      S      0.597070000000     0.068900000000     0.504630000000    -0.0178526  
S11      S      0.991980000000     0.884850000000     0.425380000000    -0.018202   
S12      S      0.919790000000     0.385170000000     0.504420000000    -0.0166766  


