data_structure

_audit_creation_method RASPA-1.0
_audit_creation_date 2023-5-19
_audit_author_name 'Poobodin Mano'

_cell_length_a    39.0051
_cell_length_b    39.0028
_cell_length_c    39.0047
_cell_angle_alpha 90
_cell_angle_beta  90
_cell_angle_gamma 90
_cell_volume      59338.2

_symmetry_cell_setting          triclinic
_symmetry_space_group_name_Hall 'P 1'
_symmetry_space_group_name_H-M  'P 1'
_symmetry_Int_Tables_number     1

_symmetry_equiv_pos_as_xyz 'x,y,z'

loop_
_atom_site_label
_atom_site_type_symbol
_atom_site_fract_x
_atom_site_fract_y
_atom_site_fract_z
_atom_site_charge
C1       C      0.997170000000     0.063710000000     0.496460000000     0.431643   
C2       C      0.996990000000     0.926790000000     0.499020000000     0.431188   
C3       C      0.928620000000     0.995360000000     0.497040000000     0.408593   
C4       C      0.065500000000     0.995210000000     0.498520000000     0.432182   
C5       C      0.998250000000     0.426830000000     0.496800000000     0.407451   
C6       C      0.998280000000     0.563660000000     0.497210000000     0.407474   
C7       C      0.998520000000     0.495360000000     0.428510000000     0.43009    
C8       C      0.998120000000     0.495090000000     0.565400000000     0.406811   
C9       C      0.565480000000     0.998670000000     0.495560000000     0.430319   
C10      C      0.428610000000     0.997460000000     0.495800000000     0.406888   
C11      C      0.496890000000     0.998380000000     0.427250000000     0.407415   
C12      C      0.497050000000     0.997720000000     0.564080000000     0.407653   
C13      C      0.494730000000     0.998750000000     0.064140000000     0.431541   
C14      C      0.496490000000     0.998080000000     0.927210000000     0.431155   
C15      C      0.495010000000     0.066920000000     0.995420000000     0.431862   
C16      C      0.496100000000     0.930020000000     0.996040000000     0.408699   
C17      C      0.996760000000     0.496130000000     0.065380000000     0.407843   
C18      C      0.997210000000     0.497260000000     0.928500000000     0.431078   
C19      C      0.065410000000     0.497080000000     0.997140000000     0.408033   
C20      C      0.928530000000     0.496190000000     0.996780000000     0.430972   
C21      C      0.497030000000     0.430030000000     0.998260000000     0.40779    
C22      C      0.497010000000     0.566920000000     0.999560000000     0.430967   
C23      C      0.428550000000     0.498420000000     0.999410000000     0.431361   
C24      C      0.565430000000     0.498470000000     0.998440000000     0.407574   
C25      C      0.839140000000     0.465950000000     0.995410000000    -0.218019   
C26      C      0.618650000000     0.499110000000     0.028460000000     0.0763139  
C27      C      0.618220000000     0.497750000000     0.967690000000     0.0752134  
C28      C      0.654460000000     0.499130000000     0.028660000000    -0.0900831  
C29      C      0.729280000000     0.519550000000     0.019540000000    -0.0380599  
C30      C      0.765110000000     0.519320000000     0.019260000000    -0.0223597  
C31      C      0.710660000000     0.498030000000     0.997420000000    -0.000710256
C32      C      0.654020000000     0.497550000000     0.966980000000    -0.0911987  
C33      C      0.783110000000     0.497410000000     0.997010000000    -0.0259119  
C34      C      0.839900000000     0.527500000000     0.998280000000    -0.125811   
C35      C      0.764480000000     0.475860000000     0.974930000000    -0.0220895  
C36      C      0.875680000000     0.526600000000     0.998080000000     0.0978515  
C37      C      0.874970000000     0.465810000000     0.995450000000     0.415437   
C38      C      0.728660000000     0.476230000000     0.975070000000    -0.0377004  
C39      C      0.672590000000     0.498270000000     0.997690000000     0.0507319  
C40      C      0.821180000000     0.496960000000     0.996890000000     0.11031    
C41      C      0.339180000000     0.496720000000     0.029710000000    -0.217126   
C42      C      0.118280000000     0.527730000000     0.996670000000     0.0766672  
C43      C      0.118570000000     0.466960000000     0.997830000000     0.0758961  
C44      C      0.154090000000     0.528350000000     0.996680000000    -0.0900277  
C45      C      0.229060000000     0.520130000000     0.976290000000    -0.0378464  
C46      C      0.264890000000     0.520200000000     0.976500000000    -0.022146   
C47      C      0.210660000000     0.497750000000     0.997710000000    -0.000429118
C48      C      0.154370000000     0.466670000000     0.998050000000    -0.0907994  
C49      C      0.283110000000     0.498040000000     0.998310000000    -0.0255638  
C50      C      0.339880000000     0.499870000000     0.968170000000    -0.126242   
C51      C      0.264710000000     0.475700000000     0.019780000000    -0.0217351  
C52      C      0.375670000000     0.499820000000     0.969050000000     0.0973172  
C53      C      0.375010000000     0.496900000000     0.029810000000     0.417057   
C54      C      0.228880000000     0.475490000000     0.019420000000    -0.0371838  
C55      C      0.172580000000     0.497590000000     0.997450000000     0.051199   
C56      C      0.321190000000     0.498230000000     0.998720000000     0.110546   
C57      C      0.495840000000     0.656280000000     0.029960000000    -0.217333   
C58      C      0.526820000000     0.877180000000     0.996010000000     0.0772364  
C59      C      0.466050000000     0.876840000000     0.996960000000     0.0775661  
C60      C      0.527480000000     0.841380000000     0.996290000000    -0.0899603  
C61      C      0.519250000000     0.766280000000     0.976240000000    -0.0381788  
C62      C      0.519270000000     0.730450000000     0.976610000000    -0.0224409  
C63      C      0.496930000000     0.784790000000     0.997640000000    -0.000294639
C64      C      0.465790000000     0.841040000000     0.997470000000    -0.0898405  
C65      C      0.497120000000     0.712350000000     0.998530000000    -0.0258296  
C66      C      0.498450000000     0.655600000000     0.968390000000    -0.12652    
C67      C      0.474900000000     0.730860000000     0.020030000000    -0.0216959  
C68      C      0.498250000000     0.619820000000     0.969250000000     0.0969812  
C69      C      0.495900000000     0.620440000000     0.030040000000     0.416502   
C70      C      0.474730000000     0.766690000000     0.019510000000    -0.0372429  
C71      C      0.496740000000     0.822870000000     0.997120000000     0.0513936  
C72      C      0.497160000000     0.674270000000     0.998960000000     0.11031    
C73      C      0.464600000000     0.156260000000     0.996780000000    -0.217146   
C74      C      0.496360000000     0.376740000000     0.028160000000     0.0768875  
C75      C      0.497660000000     0.377290000000     0.967390000000     0.0755382  
C76      C      0.496150000000     0.340930000000     0.028290000000    -0.0900195  
C77      C      0.518220000000     0.266520000000     0.974630000000    -0.0378029  
C78      C      0.518000000000     0.230680000000     0.974360000000    -0.0225151  
C79      C      0.496600000000     0.284790000000     0.996940000000    -0.000598843
C80      C      0.497690000000     0.341490000000     0.966610000000    -0.0909647  
C81      C      0.495990000000     0.212340000000     0.996220000000    -0.0253369  
C82      C      0.526180000000     0.155610000000     0.994570000000    -0.12535    
C83      C      0.474310000000     0.230620000000     0.018470000000    -0.0217557  
C84      C      0.525330000000     0.119830000000     0.994500000000     0.0986846  
C85      C      0.464530000000     0.120420000000     0.996470000000     0.417524   
C86      C      0.474690000000     0.266450000000     0.018890000000    -0.0368762  
C87      C      0.496840000000     0.322870000000     0.997280000000     0.0511781  
C88      C      0.495590000000     0.174270000000     0.995820000000     0.110867   
C89      C      0.527350000000     0.996480000000     0.838040000000    -0.218019   
C90      C      0.495650000000     0.027860000000     0.617210000000     0.0765497  
C91      C      0.498020000000     0.967120000000     0.616970000000     0.0755311  
C92      C      0.495320000000     0.028160000000     0.653010000000    -0.0902537  
C93      C      0.474290000000     0.019020000000     0.727610000000    -0.0376266  
C94      C      0.474190000000     0.018970000000     0.763440000000    -0.0224071  
C95      C      0.496320000000     0.997140000000     0.709320000000    -0.000744031
C96      C      0.497920000000     0.966510000000     0.652770000000    -0.0910742  
C97      C      0.496280000000     0.997170000000     0.781780000000    -0.025584   
C98      C      0.465760000000     0.998520000000     0.838360000000    -0.125445   
C99      C      0.518310000000     0.975290000000     0.763490000000    -0.022273   
C100     C      0.466430000000     0.998640000000     0.874150000000     0.0981129  
C101     C      0.527240000000     0.996810000000     0.873860000000     0.415534   
C102     C      0.518260000000     0.975200000000     0.727660000000    -0.03732    
C103     C      0.496500000000     0.997270000000     0.671240000000     0.0510292  
C104     C      0.496450000000     0.997370000000     0.819860000000     0.110353   
C105     C      0.464090000000     0.997560000000     0.153400000000    -0.217425   
C106     C      0.497360000000     0.028990000000     0.374360000000     0.0763454  
C107     C      0.496000000000     0.968220000000     0.374130000000     0.0753832  
C108     C      0.497230000000     0.029580000000     0.338550000000    -0.0902301  
C109     C      0.517430000000     0.021230000000     0.263570000000    -0.0378225  
C110     C      0.517190000000     0.021220000000     0.227730000000    -0.022112   
C111     C      0.495960000000     0.998930000000     0.282020000000    -0.000645015
C112     C      0.495670000000     0.967900000000     0.338330000000    -0.0912105  
C113     C      0.495330000000     0.999060000000     0.209570000000    -0.0255821  
C114     C      0.525630000000     0.000560000000     0.152900000000    -0.126049   
C115     C      0.473780000000     0.976840000000     0.228030000000    -0.0220021  
C116     C      0.524880000000     0.000340000000     0.117120000000     0.0976702  
C117     C      0.464100000000     0.997570000000     0.117570000000     0.417422   
C118     C      0.474160000000     0.976710000000     0.263850000000    -0.0373286  
C119     C      0.496310000000     0.998810000000     0.320090000000     0.0509733  
C120     C      0.495010000000     0.999090000000     0.171490000000     0.110743   
C121     C      0.998490000000     0.527640000000     0.839150000000    -0.217761   
C122     C      0.028400000000     0.496090000000     0.618450000000     0.0749344  
C123     C      0.967660000000     0.494120000000     0.618360000000     0.0746372  
C124     C      0.028800000000     0.496320000000     0.654260000000    -0.0910878  
C125     C      0.975850000000     0.473810000000     0.729080000000    -0.0380461  
C126     C      0.975830000000     0.474060000000     0.764910000000    -0.0228224  
C127     C      0.997880000000     0.495570000000     0.710630000000    -0.00114037 
C128     C      0.967140000000     0.494110000000     0.654160000000    -0.09138    
C129     C      0.997680000000     0.496220000000     0.783080000000    -0.025795   
C130     C      0.996440000000     0.466050000000     0.839830000000    -0.125703   
C131     C      0.019650000000     0.518030000000     0.764630000000    -0.0223004  
C132     C      0.996450000000     0.466920000000     0.875610000000     0.0980907  
C133     C      0.998280000000     0.527730000000     0.874990000000     0.415433   
C134     C      0.019810000000     0.517640000000     0.728800000000    -0.0374658  
C135     C      0.997940000000     0.495300000000     0.672560000000     0.0504723  
C136     C      0.997530000000     0.496640000000     0.821150000000     0.110139   
C137     C      0.028520000000     0.493970000000     0.339050000000    -0.217924   
C138     C      0.997490000000     0.465360000000     0.118180000000     0.0765672  
C139     C      0.995530000000     0.526110000000     0.118600000000     0.0756704  
C140     C      0.997480000000     0.464650000000     0.153980000000    -0.0903681  
C141     C      0.018340000000     0.472990000000     0.228740000000    -0.0372399  
C142     C      0.018670000000     0.472990000000     0.264570000000    -0.0219479  
C143     C      0.996410000000     0.495110000000     0.210620000000    -0.000649696
C144     C      0.995300000000     0.526320000000     0.154410000000    -0.0907901  
C145     C      0.996950000000     0.495000000000     0.283080000000    -0.025956   
C146     C      0.966960000000     0.496450000000     0.339950000000    -0.126618   
C147     C      0.974870000000     0.516980000000     0.264970000000    -0.0226313  
C148     C      0.967960000000     0.496430000000     0.375730000000     0.0963128  
C149     C      0.028750000000     0.494170000000     0.374880000000     0.41487    
C150     C      0.974680000000     0.517110000000     0.229140000000    -0.0380464  
C151     C      0.996350000000     0.495360000000     0.172540000000     0.0511121  
C152     C      0.997460000000     0.495130000000     0.321160000000     0.109836   
C153     C      0.154790000000     0.997010000000     0.529040000000    -0.21706    
C154     C      0.375850000000     0.966640000000     0.495310000000     0.0747983  
C155     C      0.375360000000     0.027400000000     0.496840000000     0.0751843  
C156     C      0.340050000000     0.965890000000     0.495490000000    -0.0911216  
C157     C      0.265000000000     0.973870000000     0.475510000000    -0.0376868  
C158     C      0.229170000000     0.973670000000     0.475820000000    -0.0223083  
C159     C      0.283380000000     0.996270000000     0.496940000000    -0.000792965
C160     C      0.339560000000     0.027570000000     0.497220000000    -0.0910526  
C161     C      0.210930000000     0.995730000000     0.497710000000    -0.0252335  
C162     C      0.154220000000     0.993810000000     0.467510000000    -0.125303   
C163     C      0.229300000000     0.018060000000     0.519210000000    -0.0217755  
C164     C      0.118450000000     0.993800000000     0.468310000000     0.0991517  
C165     C      0.118960000000     0.996790000000     0.529070000000     0.417583   
C166     C      0.265130000000     0.018390000000     0.518760000000    -0.0370857  
C167     C      0.321450000000     0.996580000000     0.496530000000     0.0507509  
C168     C      0.172850000000     0.995490000000     0.498090000000     0.110972   
C169     C      0.654840000000     0.029040000000     0.496630000000    -0.217883   
C170     C      0.875870000000     0.994410000000     0.466190000000     0.0770681  
C171     C      0.875360000000     0.996910000000     0.526920000000     0.077424   
C172     C      0.840060000000     0.994650000000     0.465430000000    -0.0900786  
C173     C      0.764910000000     0.975040000000     0.473750000000    -0.0380236  
C174     C      0.729070000000     0.975410000000     0.473650000000    -0.0225615  
C175     C      0.783380000000     0.996730000000     0.495820000000    -0.000366309
C176     C      0.839570000000     0.997350000000     0.527070000000    -0.0900047  
C177     C      0.710920000000     0.997610000000     0.495470000000    -0.0259971  
C178     C      0.654150000000     0.967480000000     0.494120000000    -0.126642   
C179     C      0.729410000000     0.019390000000     0.517450000000    -0.0218831  
C180     C      0.618370000000     0.968340000000     0.494280000000     0.0962401  
C181     C      0.619000000000     0.029130000000     0.496590000000     0.414758   
C182     C      0.765230000000     0.018890000000     0.517680000000    -0.0372695  
C183     C      0.821460000000     0.996210000000     0.496100000000     0.0513623  
C184     C      0.672840000000     0.998050000000     0.495370000000     0.109824   
C185     C      0.995980000000     0.837670000000     0.530120000000    -0.217447   
C186     C      0.967860000000     0.616630000000     0.498450000000     0.0752948  
C187     C      0.028610000000     0.616710000000     0.496770000000     0.0762452  
C188     C      0.967360000000     0.652430000000     0.498910000000    -0.0912828  
C189     C      0.975880000000     0.726960000000     0.520420000000    -0.0376007  
C190     C      0.975800000000     0.762790000000     0.520760000000    -0.0221105  
C191     C      0.998110000000     0.708900000000     0.498550000000    -0.000762591
C192     C      0.029030000000     0.652520000000     0.497020000000    -0.0902683  
C193     C      0.997810000000     0.781360000000     0.499090000000    -0.0258444  
C194     C      0.998830000000     0.837890000000     0.468560000000    -0.126393   
C195     C      0.020010000000     0.763300000000     0.477190000000    -0.0222227  
C196     C      0.998480000000     0.873670000000     0.469140000000     0.097256   
C197     C      0.995850000000     0.873510000000     0.529930000000     0.416984   
C198     C      0.020230000000     0.727470000000     0.476990000000    -0.0379872  
C199     C      0.998170000000     0.670820000000     0.498160000000     0.0508042  
C200     C      0.997550000000     0.819440000000     0.499260000000     0.11044    
C201     C      0.998990000000     0.152790000000     0.465280000000    -0.217545   
C202     C      0.967790000000     0.373870000000     0.497270000000     0.0754717  
C203     C      0.028560000000     0.373780000000     0.496020000000     0.0765158  
C204     C      0.967270000000     0.338070000000     0.497280000000    -0.091105   
C205     C      0.975650000000     0.263300000000     0.518000000000    -0.0380083  
C206     C      0.975590000000     0.227470000000     0.517960000000    -0.022488   
C207     C      0.997980000000     0.281590000000     0.496430000000    -0.000635713
C208     C      0.028950000000     0.337970000000     0.495820000000    -0.0901899  
C209     C      0.997720000000     0.209140000000     0.496210000000    -0.0255958  
C210     C      0.996000000000     0.152660000000     0.526830000000    -0.125407   
C211     C      0.020000000000     0.227440000000     0.474580000000    -0.0216113  
C212     C      0.995990000000     0.116880000000     0.526290000000     0.0985278  
C213     C      0.998740000000     0.116950000000     0.465510000000     0.415663   
C214     C      0.020200000000     0.263270000000     0.474760000000    -0.0372332  
C215     C      0.998070000000     0.319670000000     0.496510000000     0.0509314  
C216     C      0.997570000000     0.171060000000     0.496110000000     0.110547   
Cu1      Cu     0.997390000000     0.994650000000     0.466170000000     0.863652   
Cu2      Cu     0.996680000000     0.995850000000     0.529330000000     0.883643   
Cu3      Cu     0.966670000000     0.495250000000     0.496920000000     0.84772    
Cu4      Cu     0.029890000000     0.495240000000     0.497050000000     0.868451   
Cu5      Cu     0.497290000000     0.966440000000     0.495500000000     0.847835   
Cu6      Cu     0.496740000000     0.029660000000     0.495840000000     0.868267   
Cu7      Cu     0.527170000000     0.998690000000     0.996050000000     0.863259   
Cu8      Cu     0.464010000000     0.998190000000     0.995310000000     0.883765   
Cu9      Cu     0.997200000000     0.465070000000     0.996710000000     0.866143   
Cu10     Cu     0.996800000000     0.528260000000     0.997230000000     0.865595   
Cu11     Cu     0.497210000000     0.498150000000     0.030500000000     0.885997   
Cu12     Cu     0.496820000000     0.498740000000     0.967300000000     0.845257   
F1       F      0.890840000000     0.434820000000     0.994060000000    -0.450286   
F2       F      0.390910000000     0.495460000000     0.060790000000    -0.444523   
F3       F      0.494650000000     0.604510000000     0.061010000000    -0.444809   
F4       F      0.433550000000     0.104490000000     0.997390000000    -0.444118   
F5       F      0.558140000000     0.995990000000     0.889950000000    -0.450232   
F6       F      0.433190000000     0.996130000000     0.101560000000    -0.44456    
F7       F      0.999170000000     0.558710000000     0.890910000000    -0.450152   
F8       F      0.059790000000     0.493080000000     0.390670000000    -0.450457   
F9       F      0.102980000000     0.998230000000     0.560010000000    -0.444522   
F10      F      0.603090000000     0.060110000000     0.497760000000    -0.450597   
F11      F      0.994410000000     0.889670000000     0.560760000000    -0.445105   
F12      F      0.000080000000     0.100740000000     0.434690000000    -0.449543   
H1       H      0.604920000000     0.497280000000     0.943290000000     0.0283417  
H2       H      0.888980000000     0.550980000000     0.999080000000     0.0276884  
H3       H      0.715040000000     0.459140000000     0.957940000000     0.043432   
H4       H      0.778730000000     0.536000000000     0.036780000000     0.0390048  
H5       H      0.827010000000     0.552090000000     0.999070000000     0.0664028  
H6       H      0.716150000000     0.536850000000     0.036840000000     0.0438106  
H7       H      0.825550000000     0.441740000000     0.994690000000     0.119078   
H8       H      0.667040000000     0.497270000000     0.942460000000     0.0562203  
H9       H      0.667830000000     0.499320000000     0.053000000000     0.0580801  
H10      H      0.777610000000     0.458920000000     0.957270000000     0.0429963  
H11      H      0.605690000000     0.499640000000     0.053040000000     0.0337478  
H12      H      0.105550000000     0.442400000000     0.998200000000     0.0302015  
H13      H      0.388950000000     0.500980000000     0.944660000000     0.0239821  
H14      H      0.215440000000     0.458160000000     0.036450000000     0.0445397  
H15      H      0.278340000000     0.537910000000     0.959870000000     0.0394463  
H16      H      0.326960000000     0.500700000000     0.943600000000     0.0651988  
H17      H      0.215750000000     0.537370000000     0.959050000000     0.0440162  
H18      H      0.325610000000     0.495830000000     0.053930000000     0.12099    
H19      H      0.167670000000     0.442290000000     0.998250000000     0.0572718  
H20      H      0.167180000000     0.552850000000     0.996570000000     0.058486   
H21      H      0.278010000000     0.458090000000     0.036640000000     0.043809   
H22      H      0.105030000000     0.552160000000     0.996210000000     0.033345   
H23      H      0.441470000000     0.889830000000     0.997150000000     0.0346944  
H24      H      0.499150000000     0.606560000000     0.944840000000     0.0237307  
H25      H      0.457450000000     0.780230000000     0.036510000000     0.0456933  
H26      H      0.536890000000     0.716900000000     0.959960000000     0.038688   
H27      H      0.499110000000     0.668530000000     0.943820000000     0.0650569  
H28      H      0.536450000000     0.779500000000     0.958900000000     0.0437151  
H29      H      0.495190000000     0.669850000000     0.054180000000     0.120531   
H30      H      0.441430000000     0.827700000000     0.997710000000     0.058757   
H31      H      0.551990000000     0.828310000000     0.996350000000     0.058072   
H32      H      0.457330000000     0.717650000000     0.036990000000     0.0446996  
H33      H      0.551230000000     0.890460000000     0.995530000000     0.0332273  
H34      H      0.498170000000     0.390650000000     0.943020000000     0.0286106  
H35      H      0.549750000000     0.106570000000     0.993680000000     0.0284322  
H36      H      0.457510000000     0.279800000000     0.036160000000     0.0457622  
H37      H      0.534800000000     0.217320000000     0.956740000000     0.0399607  
H38      H      0.550750000000     0.168560000000     0.994150000000     0.066818   
H39      H      0.535600000000     0.279930000000     0.957630000000     0.0429881  
H40      H      0.440370000000     0.169810000000     0.997370000000     0.121043   
H41      H      0.497880000000     0.328510000000     0.942060000000     0.0567736  
H42      H      0.495860000000     0.327510000000     0.052600000000     0.0587257  
H43      H      0.457280000000     0.217220000000     0.035830000000     0.0450241  
H44      H      0.495900000000     0.389650000000     0.052770000000     0.0344078  
H45      H      0.499000000000     0.942690000000     0.603730000000     0.0285383  
H46      H      0.441940000000     0.999420000000     0.887290000000     0.0294893  
H47      H      0.535750000000     0.958260000000     0.714300000000     0.0438104  
H48      H      0.457130000000     0.036330000000     0.776800000000     0.0403335  
H49      H      0.441260000000     0.998870000000     0.825300000000     0.0671081  
H50      H      0.456860000000     0.035990000000     0.714220000000     0.0434082  
H51      H      0.551660000000     0.995980000000     0.824620000000     0.119334   
H52      H      0.498490000000     0.942030000000     0.665880000000     0.056277   
H53      H      0.494620000000     0.052540000000     0.666300000000     0.0581312  
H54      H      0.535390000000     0.957970000000     0.776880000000     0.042851   
H55      H      0.494830000000     0.052390000000     0.604180000000     0.0326839  
H56      H      0.495590000000     0.943670000000     0.387170000000     0.0285191  
H57      H      0.549320000000     0.001370000000     0.103930000000     0.0254073  
H58      H      0.457090000000     0.959450000000     0.277340000000     0.0439058  
H59      H      0.533870000000     0.038850000000     0.214240000000     0.0397335  
H60      H      0.550160000000     0.001380000000     0.165890000000     0.0657436  
H61      H      0.534720000000     0.038440000000     0.276830000000     0.0440116  
H62      H      0.439820000000     0.996790000000     0.166890000000     0.120921   
H63      H      0.495350000000     0.943510000000     0.325050000000     0.0564386  
H64      H      0.497370000000     0.054060000000     0.325450000000     0.0583621  
H65      H      0.456880000000     0.959250000000     0.214770000000     0.043504   
H66      H      0.497920000000     0.053430000000     0.387590000000     0.0329045  
H67      H      0.943190000000     0.493330000000     0.605180000000     0.0281761  
H68      H      0.995720000000     0.442500000000     0.888880000000     0.0284131  
H69      H      0.036860000000     0.534930000000     0.715320000000     0.0437753  
H70      H      0.958410000000     0.457160000000     0.778390000000     0.0396742  
H71      H      0.996040000000     0.441480000000     0.826900000000     0.066456   
H72      H      0.958870000000     0.456300000000     0.715810000000     0.0425738  
H73      H      0.998970000000     0.551880000000     0.825590000000     0.119186   
H74      H      0.942690000000     0.493670000000     0.667320000000     0.0562844  
H75      H      0.053210000000     0.496870000000     0.667500000000     0.0565622  
H76      H      0.037000000000     0.535180000000     0.777900000000     0.0429759  
H77      H      0.052910000000     0.496810000000     0.605360000000     0.0295731  
H78      H      0.994840000000     0.550690000000     0.105650000000     0.0299063  
H79      H      0.943600000000     0.497340000000     0.389100000000     0.0236297  
H80      H      0.957260000000     0.534230000000     0.215920000000     0.0428272  
H81      H      0.035740000000     0.455530000000     0.277780000000     0.0434727  
H82      H      0.942340000000     0.497020000000     0.327110000000     0.0649516  
H83      H      0.035600000000     0.455950000000     0.215220000000     0.0444328  
H84      H      0.052710000000     0.493340000000     0.325400000000     0.119222   
H85      H      0.994800000000     0.550660000000     0.167770000000     0.0569396  
H86      H      0.997930000000     0.440130000000     0.167010000000     0.0581399  
H87      H      0.958040000000     0.534440000000     0.278510000000     0.0383647  
H88      H      0.998280000000     0.440970000000     0.104870000000     0.0327703  
H89      H      0.388290000000     0.052000000000     0.497300000000     0.0297741  
H90      H      0.105220000000     0.992610000000     0.443890000000     0.0285211  
H91      H      0.278550000000     0.035730000000     0.535800000000     0.0440559  
H92      H      0.215750000000     0.955950000000     0.459170000000     0.0395103  
H93      H      0.167180000000     0.992980000000     0.442950000000     0.0670396  
H94      H      0.278320000000     0.956730000000     0.458180000000     0.0429934  
H95      H      0.168320000000     0.997940000000     0.553280000000     0.120698   
H96      H      0.326170000000     0.051890000000     0.497630000000     0.0571447  
H97      H      0.327050000000     0.941340000000     0.495310000000     0.0566195  
H98      H      0.215980000000     0.035590000000     0.536130000000     0.043931   
H99      H      0.389180000000     0.942260000000     0.494650000000     0.028489   
H100     H      0.888290000000     0.997740000000     0.551520000000     0.0341891  
H101     H      0.605110000000     0.943930000000     0.493420000000     0.0235535  
H102     H      0.778720000000     0.036150000000     0.534750000000     0.0444988  
H103     H      0.715580000000     0.958540000000     0.456200000000     0.0384157  
H104     H      0.667060000000     0.942900000000     0.493520000000     0.0647957  
H105     H      0.778150000000     0.957450000000     0.456820000000     0.0429665  
H106     H      0.668400000000     0.053280000000     0.497220000000     0.118994   
H107     H      0.826180000000     0.998150000000     0.551390000000     0.0584034  
H108     H      0.827070000000     0.994100000000     0.440900000000     0.057924   
H109     H      0.716170000000     0.036570000000     0.534800000000     0.0432054  
H110     H      0.889210000000     0.993350000000     0.441830000000     0.0326691  
H111     H      0.053110000000     0.603600000000     0.496030000000     0.0326912  
H112     H      0.999420000000     0.886740000000     0.444630000000     0.0250837  
H113     H      0.037440000000     0.714300000000     0.459620000000     0.0437654  
H114     H      0.958180000000     0.775970000000     0.537710000000     0.0430526  
H115     H      0.999660000000     0.824790000000     0.444090000000     0.0653635  
H116     H      0.958760000000     0.713390000000     0.537560000000     0.043669   
H117     H      0.995320000000     0.824280000000     0.554440000000     0.120653   
H118     H      0.053450000000     0.665740000000     0.496790000000     0.0580584  
H119     H      0.942910000000     0.665590000000     0.499390000000     0.0560395  
H120     H      0.037500000000     0.776870000000     0.460420000000     0.0394115  
H121     H      0.943380000000     0.603470000000     0.498950000000     0.0283045  
H122     H      0.053070000000     0.386870000000     0.495600000000     0.0330524  
H123     H      0.994860000000     0.103840000000     0.550810000000     0.0293206  
H124     H      0.037490000000     0.276630000000     0.457630000000     0.0452372  
H125     H      0.957920000000     0.214110000000     0.534710000000     0.0390967  
H126     H      0.995250000000     0.165800000000     0.551290000000     0.0670463  
H127     H      0.958450000000     0.276690000000     0.535210000000     0.0426388  
H128     H      0.999850000000     0.166140000000     0.440940000000     0.119503   
H129     H      0.053360000000     0.324720000000     0.495580000000     0.0580737  
H130     H      0.942810000000     0.324920000000     0.497440000000     0.0566155  
H131     H      0.037570000000     0.214040000000     0.457760000000     0.0440111  
H132     H      0.943320000000     0.387040000000     0.497760000000     0.0285322  
N1       N      0.893250000000     0.496050000000     0.996750000000    -0.241584   
N2       N      0.600630000000     0.498450000000     0.998200000000    -0.192344   
N3       N      0.393270000000     0.498380000000     0.999570000000    -0.241604   
N4       N      0.100610000000     0.497260000000     0.997210000000    -0.192163   
N5       N      0.497050000000     0.602200000000     0.999770000000    -0.241711   
N6       N      0.496330000000     0.894820000000     0.996320000000    -0.191443   
N7       N      0.494800000000     0.102200000000     0.995440000000    -0.241061   
N8       N      0.497020000000     0.394830000000     0.997940000000    -0.192208   
N9       N      0.496870000000     0.997840000000     0.891930000000    -0.241508   
N10      N      0.496930000000     0.997560000000     0.599280000000    -0.192341   
N11      N      0.494410000000     0.998890000000     0.099420000000    -0.241523   
N12      N      0.496770000000     0.998530000000     0.392060000000    -0.19245    
N13      N      0.997310000000     0.497450000000     0.893220000000    -0.241553   
N14      N      0.998060000000     0.495080000000     0.600600000000    -0.193081   
N15      N      0.998550000000     0.495330000000     0.393230000000    -0.242341   
N16      N      0.996600000000     0.495860000000     0.100580000000    -0.192251   
N17      N      0.100780000000     0.995260000000     0.498790000000    -0.240913   
N18      N      0.393410000000     0.997170000000     0.495960000000    -0.192989   
N19      N      0.600760000000     0.998870000000     0.495480000000    -0.242362   
N20      N      0.893420000000     0.995540000000     0.496710000000    -0.191534   
N21      N      0.997080000000     0.891510000000     0.499530000000    -0.241624   
N22      N      0.998250000000     0.598860000000     0.497460000000    -0.192489   
N23      N      0.997300000000     0.098990000000     0.495930000000    -0.241384   
N24      N      0.998200000000     0.391630000000     0.496700000000    -0.192357   
O1       O      0.997480000000     0.046700000000     0.468280000000    -0.355274   
O2       O      0.997340000000     0.942760000000     0.470200000000    -0.401693   
O3       O      0.945350000000     0.994750000000     0.468660000000    -0.391719   
O4       O      0.049330000000     0.994620000000     0.469810000000    -0.395984   
O5       O      0.048700000000     0.995790000000     0.526820000000    -0.351055   
O6       O      0.944760000000     0.995880000000     0.525750000000    -0.392044   
O7       O      0.996640000000     0.943800000000     0.527220000000    -0.3515     
O8       O      0.996750000000     0.047760000000     0.525290000000    -0.397029   
O9       O      0.969700000000     0.443280000000     0.496700000000    -0.39607    
O10      O      0.969730000000     0.547220000000     0.497240000000    -0.396341   
O11      O      0.969920000000     0.495530000000     0.444910000000    -0.400844   
O12      O      0.969600000000     0.494960000000     0.548910000000    -0.39665    
O13      O      0.026710000000     0.495280000000     0.549020000000    -0.396861   
O14      O      0.026950000000     0.495190000000     0.445090000000    -0.355766   
O15      O      0.026840000000     0.547240000000     0.497030000000    -0.392012   
O16      O      0.026820000000     0.443240000000     0.496990000000    -0.391342   
O17      O      0.549250000000     0.969990000000     0.495270000000    -0.401308   
O18      O      0.445280000000     0.969040000000     0.495690000000    -0.396506   
O19      O      0.497020000000     0.969740000000     0.443540000000    -0.396093   
O20      O      0.497480000000     0.969240000000     0.547510000000    -0.395871   
O21      O      0.496660000000     0.026350000000     0.547790000000    -0.391763   
O22      O      0.496850000000     0.026860000000     0.443820000000    -0.391805   
O23      O      0.444790000000     0.026160000000     0.495820000000    -0.396749   
O24      O      0.548750000000     0.027020000000     0.495890000000    -0.355622   
O25      O      0.523460000000     0.999080000000     0.048000000000    -0.401076   
O26      O      0.524770000000     0.998240000000     0.944060000000    -0.355578   
O27      O      0.523680000000     0.050670000000     0.995610000000    -0.396352   
O28      O      0.524540000000     0.946660000000     0.996350000000    -0.391009   
O29      O      0.467440000000     0.946250000000     0.995520000000    -0.391751   
O30      O      0.466660000000     0.050190000000     0.995280000000    -0.351202   
O31      O      0.467750000000     0.998120000000     0.943330000000    -0.397225   
O32      O      0.466440000000     0.998290000000     0.047310000000    -0.351065   
O33      O      0.997050000000     0.467700000000     0.048730000000    -0.392058   
O34      O      0.997280000000     0.468580000000     0.944750000000    -0.396328   
O35      O      0.049150000000     0.468430000000     0.996920000000    -0.396382   
O36      O      0.945210000000     0.467810000000     0.996550000000    -0.355419   
O37      O      0.944820000000     0.524840000000     0.997100000000    -0.396834   
O38      O      0.048820000000     0.525540000000     0.997300000000    -0.391427   
O39      O      0.997010000000     0.525610000000     0.945230000000    -0.355202   
O40      O      0.996620000000     0.524810000000     0.049180000000    -0.396533   
O41      O      0.497290000000     0.446200000000     0.026970000000    -0.391929   
O42      O      0.497010000000     0.550170000000     0.027900000000    -0.351584   
O43      O      0.445240000000     0.498000000000     0.027780000000    -0.351068   
O44      O      0.549190000000     0.498360000000     0.027100000000    -0.392675   
O45      O      0.548820000000     0.498560000000     0.969990000000    -0.396379   
O46      O      0.444830000000     0.498870000000     0.970760000000    -0.400576   
O47      O      0.497020000000     0.550700000000     0.970870000000    -0.400914   
O48      O      0.496770000000     0.446720000000     0.969860000000    -0.396104   


