data_structure

_audit_creation_method RASPA-1.0
_audit_creation_date 2023-6-4
_audit_author_name 'Poobodin Mano'

_cell_length_a    26.0093
_cell_length_b    27.5211
_cell_length_c    38.3549
_cell_angle_alpha 89.9988
_cell_angle_beta  89.9988
_cell_angle_gamma 93.7177
_cell_volume      27396.8

_symmetry_cell_setting          triclinic
_symmetry_space_group_name_Hall 'P 1'
_symmetry_space_group_name_H-M  'P 1'
_symmetry_Int_Tables_number     1

_symmetry_equiv_pos_as_xyz 'x,y,z'

loop_
_atom_site_label
_atom_site_type_symbol
_atom_site_fract_x
_atom_site_fract_y
_atom_site_fract_z
_atom_site_charge
C1       C      0.072040000000     0.904260000000     0.000970000000     0.403087   
C2       C      0.939270000000     0.046310000000     0.000400000000     0.39758    
C3       C      0.083920000000     0.038640000000     0.989780000000     0.415137   
C4       C      0.925230000000     0.911830000000     0.011950000000     0.416352   
C5       C      0.066860000000     0.908660000000     0.493840000000     0.403421   
C6       C      0.944080000000     0.058820000000     0.493610000000     0.40315    
C7       C      0.086510000000     0.047790000000     0.497990000000     0.417119   
C8       C      0.924310000000     0.921990000000     0.489120000000     0.41232    
C9       C      0.516960000000     0.476730000000     0.930510000000     0.476736   
C10      C      0.494610000000     0.472850000000     0.062550000000     0.475971   
C11      C      0.570850000000     0.408860000000     0.002300000000     0.467601   
C12      C      0.438330000000     0.539580000000     0.993430000000     0.465933   
C13      C      0.501990000000     0.472750000000     0.429970000000     0.482734   
C14      C      0.509540000000     0.494930000000     0.561600000000     0.479282   
C15      C      0.571700000000     0.417810000000     0.497890000000     0.468612   
C16      C      0.434060000000     0.544290000000     0.494050000000     0.534774   
C17      C      0.469880000000     0.497550000000     0.653530000000    -0.14293    
C18      C      0.500280000000     0.440150000000     0.875220000000     0.0765638  
C19      C      0.546700000000     0.516960000000     0.878570000000     0.0761333  
C20      C      0.502700000000     0.441300000000     0.838920000000    -0.0955302  
C21      C      0.483480000000     0.463030000000     0.763820000000    -0.0373905  
C22      C      0.481960000000     0.466080000000     0.727550000000    -0.0317108  
C23      C      0.524830000000     0.485400000000     0.782810000000    -0.00577751 
C24      C      0.548480000000     0.519990000000     0.842180000000    -0.0949811  
C25      C      0.520890000000     0.492920000000     0.709000000000    -0.0154544  
C26      C      0.562230000000     0.501610000000     0.649550000000    -0.107762   
C27      C      0.562220000000     0.515520000000     0.727920000000    -0.0317475  
C28      C      0.558090000000     0.503920000000     0.613310000000     0.0822827  
C29      C      0.466530000000     0.499980000000     0.617040000000     0.18778    
C30      C      0.564430000000     0.511400000000     0.764260000000    -0.0373936  
C31      C      0.525850000000     0.482060000000     0.821710000000     0.0497136  
C32      C      0.517790000000     0.497310000000     0.670230000000     0.0704276  
C33      C      0.530550000000     0.490530000000     0.336610000000    -0.144423   
C34      C      0.451140000000     0.443500000000     0.113970000000     0.0750552  
C35      C      0.523250000000     0.500420000000     0.118380000000     0.0766763  
C36      C      0.445800000000     0.442810000000     0.150290000000    -0.0957224  
C37      C      0.464430000000     0.427660000000     0.228120000000    -0.03766    
C38      C      0.465590000000     0.426970000000     0.264610000000    -0.0321007  
C39      C      0.476090000000     0.471290000000     0.209790000000    -0.00646784 
C40      C      0.519180000000     0.500430000000     0.154590000000    -0.0962689  
C41      C      0.478780000000     0.469800000000     0.283400000000    -0.0167152  
C42      C      0.449860000000     0.443970000000     0.343400000000    -0.109577   
C43      C      0.488370000000     0.513660000000     0.265160000000    -0.0321654  
C44      C      0.457510000000     0.444180000000     0.379430000000     0.0816424  
C45      C      0.538940000000     0.487990000000     0.372690000000     0.188657   
C46      C      0.486770000000     0.514460000000     0.228820000000    -0.0377284  
C47      C      0.480030000000     0.471620000000     0.171080000000     0.0500603  
C48      C      0.485910000000     0.468530000000     0.321710000000     0.0718269  
C49      C      0.141250000000     0.804900000000     0.522560000000    -0.137478   
C50      C      0.350040000000     0.568480000000     0.479550000000     0.0753406  
C51      C      0.408220000000     0.623520000000     0.509280000000     0.0695803  
C52      C      0.312910000000     0.603400000000     0.478790000000    -0.0950976  
C53      C      0.253900000000     0.694810000000     0.463930000000    -0.0376045  
C54      C      0.218010000000     0.730850000000     0.463700000000    -0.0328404  
C55      C      0.284490000000     0.687450000000     0.493530000000    -0.00640027 
C56      C      0.371970000000     0.659030000000     0.509280000000    -0.0951977  
C57      C      0.211250000000     0.760330000000     0.493180000000    -0.014297   
C58      C      0.164370000000     0.827110000000     0.464010000000    -0.103248   
C59      C      0.241670000000     0.752750000000     0.522810000000    -0.0328652  
C60      C      0.127850000000     0.862400000000     0.464780000000     0.074799   
C61      C      0.102810000000     0.838930000000     0.522270000000     0.180823   
C62      C      0.277800000000     0.717020000000     0.522950000000    -0.0376504  
C63      C      0.323580000000     0.649590000000     0.493680000000     0.047744   
C64      C      0.172230000000     0.798260000000     0.493310000000     0.066286   
C65      C      0.608930000000     0.654890000000     0.479290000000    -0.147243   
C66      C      0.865450000000     0.872680000000     0.454970000000     0.0743104  
C67      C      0.859830000000     0.870950000000     0.516780000000     0.0741006  
C68      C      0.826450000000     0.835810000000     0.452460000000    -0.0959582  
C69      C      0.774790000000     0.733090000000     0.503390000000    -0.0377385  
C70      C      0.740560000000     0.692330000000     0.502180000000    -0.031502   
C71      C      0.768220000000     0.772660000000     0.481150000000    -0.00669968 
C72      C      0.820760000000     0.834240000000     0.515230000000    -0.0966919  
C73      C      0.699280000000     0.690370000000     0.478610000000    -0.0174008  
C74      C      0.678880000000     0.600950000000     0.481650000000    -0.110279   
C75      C      0.692910000000     0.729670000000     0.456020000000    -0.0317346  
C76      C      0.643040000000     0.561740000000     0.485630000000     0.0841119  
C77      C      0.574190000000     0.614590000000     0.483550000000     0.193232   
C78      C      0.727340000000     0.770590000000     0.457220000000    -0.0380495  
C79      C      0.804800000000     0.815470000000     0.482880000000     0.051275   
C80      C      0.661850000000     0.648100000000     0.478980000000     0.0725903  
C81      C      0.871140000000     0.165040000000     0.468070000000    -0.138498   
C82      C      0.594410000000     0.336390000000     0.509250000000     0.0734486  
C83      C      0.656960000000     0.394240000000     0.486760000000     0.0736267  
C84      C      0.630590000000     0.300650000000     0.509620000000    -0.0927215  
C85      C      0.705680000000     0.223240000000     0.494190000000    -0.0370658  
C86      C      0.742470000000     0.188050000000     0.493870000000    -0.0329469  
C87      C      0.720610000000     0.273360000000     0.497270000000    -0.00569898 
C88      C      0.693650000000     0.359130000000     0.485920000000    -0.0935156  
C89      C      0.795290000000     0.201930000000     0.495700000000    -0.0149391  
C90      C      0.837030000000     0.130290000000     0.521180000000    -0.104674   
C91      C      0.810580000000     0.251600000000     0.498530000000    -0.0331148  
C92      C      0.875380000000     0.096860000000     0.520560000000     0.0759118  
C93      C      0.909760000000     0.131200000000     0.467880000000     0.180829   
C94      C      0.773860000000     0.286730000000     0.499770000000    -0.0372199  
C95      C      0.681220000000     0.311380000000     0.497650000000     0.0473486  
C96      C      0.834520000000     0.164810000000     0.494730000000     0.0675734  
C97      C      0.188360000000     0.141460000000     0.475750000000    -0.143985   
C98      C      0.421850000000     0.366630000000     0.534800000000     0.0733628  
C99      C      0.382190000000     0.384090000000     0.480830000000     0.0740589  
C100     C      0.391570000000     0.323350000000     0.537950000000    -0.0919642  
C101     C      0.297160000000     0.249770000000     0.541600000000    -0.0384677  
C102     C      0.263650000000     0.208220000000     0.540650000000    -0.0310835  
C103     C      0.327420000000     0.262650000000     0.512410000000    -0.00585532 
C104     C      0.351600000000     0.340870000000     0.482710000000    -0.0926702  
C105     C      0.260490000000     0.179010000000     0.510570000000    -0.0172437  
C106     C      0.201150000000     0.111960000000     0.533910000000    -0.109183   
C107     C      0.294000000000     0.189940000000     0.482560000000    -0.0316539  
C108     C      0.156570000000     0.081740000000     0.530430000000     0.0806333  
C109     C      0.142370000000     0.112450000000     0.473260000000     0.186056   
C110     C      0.327010000000     0.231690000000     0.483390000000    -0.0387348  
C111     C      0.357080000000     0.309690000000     0.511190000000     0.0482391  
C112     C      0.217410000000     0.142100000000     0.506360000000     0.0729825  
C113     C      0.180280000000     0.828220000000     0.024250000000    -0.138572   
C114     C      0.352450000000     0.562330000000     0.982750000000     0.0735139  
C115     C      0.415770000000     0.621470000000     0.002520000000     0.0734509  
C116     C      0.315350000000     0.597180000000     0.982230000000    -0.0925485  
C117     C      0.235590000000     0.670210000000     0.998050000000    -0.0372025  
C118     C      0.199060000000     0.705670000000     0.998770000000    -0.0329971  
C119     C      0.288580000000     0.683300000000     0.993180000000    -0.00554285 
C120     C      0.379390000000     0.656920000000     0.003130000000    -0.0926116  
C121     C      0.214490000000     0.755260000000     0.995480000000    -0.0149847  
C122     C      0.137860000000     0.796770000000     0.972830000000    -0.104306   
C123     C      0.267000000000     0.768650000000     0.990630000000    -0.0331392  
C124     C      0.104620000000     0.834840000000     0.974390000000     0.0748994  
C125     C      0.146860000000     0.866640000000     0.025360000000     0.18007    
C126     C      0.303380000000     0.733260000000     0.989040000000    -0.037281   
C127     C      0.328130000000     0.645430000000     0.992780000000     0.0471142  
C128     C      0.176390000000     0.793340000000     0.997820000000     0.0673147  
C129     C      0.807110000000     0.834800000000     0.997420000000    -0.14483    
C130     C      0.631540000000     0.556190000000     0.030270000000     0.0742     
C131     C      0.594310000000     0.599690000000     0.984250000000     0.0728364  
C132     C      0.667260000000     0.595080000000     0.036680000000    -0.092334   
C133     C      0.754160000000     0.674010000000     0.029830000000    -0.0381084  
C134     C      0.788870000000     0.714600000000     0.032650000000    -0.0312308  
C135     C      0.701810000000     0.680000000000     0.023280000000    -0.00563347 
C136     C      0.629350000000     0.639220000000     0.989620000000    -0.0915874  
C137     C      0.771630000000     0.761530000000     0.028750000000    -0.0173952  
C138     C      0.846850000000     0.812600000000     0.051320000000    -0.109563   
C139     C      0.719000000000     0.767610000000     0.024050000000    -0.0317028  
C140     C      0.883490000000     0.851190000000     0.046860000000     0.08114    
C141     C      0.843720000000     0.873940000000     0.993740000000     0.187644   
C142     C      0.684310000000     0.727170000000     0.021510000000    -0.0384077  
C143     C      0.665800000000     0.637480000000     0.016500000000     0.0476751  
C144     C      0.808940000000     0.803720000000     0.026060000000     0.0735153  
C145     C      0.630100000000     0.289920000000     0.009590000000    -0.139816   
C146     C      0.879340000000     0.093600000000     0.970180000000     0.0684622  
C147     C      0.895310000000     0.107940000000     0.030170000000     0.0692924  
C148     C      0.843480000000     0.129550000000     0.969690000000    -0.0914912  
C149     C      0.747090000000     0.185880000000     0.983130000000    -0.0380761  
C150     C      0.710590000000     0.221280000000     0.983650000000    -0.0324138  
C151     C      0.794950000000     0.194030000000     0.000000000000    -0.00516746 
C152     C      0.860220000000     0.144630000000     0.030450000000    -0.0911207  
C153     C      0.721140000000     0.266170000000     0.000640000000    -0.015093   
C154     C      0.695190000000     0.352940000000     0.996840000000    -0.10571    
C155     C      0.769280000000     0.274610000000     0.017120000000    -0.0322591  
C156     C      0.657590000000     0.387130000000     0.998230000000     0.0779344  
C157     C      0.593300000000     0.325210000000     0.012970000000     0.184495   
C158     C      0.805500000000     0.238910000000     0.017020000000    -0.0379923  
C159     C      0.833430000000     0.155750000000     0.000030000000     0.0461826  
C160     C      0.681620000000     0.303460000000     0.001870000000     0.0681651  
C161     C      0.189320000000     0.129430000000     0.007440000000    -0.145033   
C162     C      0.381590000000     0.393070000000     0.959560000000     0.074294   
C163     C      0.405750000000     0.356590000000     0.012720000000     0.0743846  
C164     C      0.340720000000     0.358320000000     0.955430000000    -0.0930431  
C165     C      0.283400000000     0.257070000000     0.947360000000    -0.0382882  
C166     C      0.247740000000     0.216970000000     0.946540000000    -0.0314481  
C167     C      0.289320000000     0.285270000000     0.977750000000    -0.00621508 
C168     C      0.365090000000     0.321570000000     0.009850000000    -0.0933831  
C169     C      0.217680000000     0.204990000000     0.976090000000    -0.0173032  
C170     C      0.154560000000     0.142650000000     0.950340000000    -0.108792   
C171     C      0.221160000000     0.235440000000     0.005470000000    -0.0315632  
C172     C      0.123400000000     0.099880000000     0.954010000000     0.0801757  
C173     C      0.159060000000     0.085820000000     0.010080000000     0.187601   
C174     C      0.256880000000     0.275160000000     0.006350000000    -0.0386538  
C175     C      0.332080000000     0.322430000000     0.980990000000     0.0485356  
C176     C      0.186230000000     0.158680000000     0.977900000000     0.0730402  
Cu1      Cu     0.999190000000     0.969790000000     0.969060000000     0.841399   
Cu2      Cu     0.010630000000     0.979610000000     0.032520000000     0.84119    
Cu3      Cu     0.008480000000     0.985930000000     0.461570000000     0.84034    
Cu4      Cu     0.003410000000     0.982390000000     0.525670000000     0.845564   
Cu5      Cu     0.544050000000     0.510740000000     0.999730000000     1.17979    
Cu6      Cu     0.466220000000     0.438750000000     0.993110000000     1.17891    
Cu7      Cu     0.543070000000     0.517600000000     0.492620000000     1.20928    
Cu8      Cu     0.465440000000     0.446710000000     0.499720000000     1.16979    
H1       H      0.563990000000     0.547390000000     0.893340000000     0.022831   
H2       H      0.593580000000     0.505170000000     0.598360000000     0.0215963  
H3       H      0.597410000000     0.528560000000     0.777670000000     0.0367843  
H4       H      0.450010000000     0.447120000000     0.714140000000     0.0350624  
H5       H      0.600230000000     0.501450000000     0.661020000000     0.0550504  
H6       H      0.451530000000     0.443510000000     0.776850000000     0.0364965  
H7       H      0.434860000000     0.497730000000     0.668800000000     0.0646518  
H8       H      0.566270000000     0.552620000000     0.830400000000     0.0517015  
H9       H      0.486250000000     0.410170000000     0.824600000000     0.0518283  
H10      H      0.592730000000     0.537040000000     0.714840000000     0.0350143  
H11      H      0.481210000000     0.408180000000     0.887260000000     0.0238514  
H12      H      0.386230000000     0.504850000000     0.618050000000     0.0879246  
H13      H      0.414220000000     0.515410000000     0.576640000000     0.106117   
H14      H      0.554320000000     0.523280000000     0.106920000000     0.0238083  
H15      H      0.427120000000     0.426740000000     0.395290000000     0.0204243  
H16      H      0.494640000000     0.548920000000     0.215600000000     0.0372295  
H17      H      0.458350000000     0.392590000000     0.278050000000     0.0355825  
H18      H      0.415090000000     0.425970000000     0.332690000000     0.0551146  
H19      H      0.456450000000     0.393690000000     0.214320000000     0.0366238  
H20      H      0.560380000000     0.507150000000     0.319880000000     0.0657252  
H21      H      0.547280000000     0.522450000000     0.169550000000     0.0520988  
H22      H      0.414720000000     0.420230000000     0.161900000000     0.0514747  
H23      H      0.497830000000     0.547340000000     0.279060000000     0.0362415  
H24      H      0.423820000000     0.420800000000     0.098800000000     0.022075   
H25      H      0.615030000000     0.517960000000     0.368080000000     0.0871436  
H26      H      0.600410000000     0.492550000000     0.409270000000     0.106514   
H27      H      0.443590000000     0.631670000000     0.523560000000     0.0110308  
H28      H      0.125160000000     0.884890000000     0.441720000000     0.0241084  
H29      H      0.300140000000     0.712230000000     0.546380000000     0.0367019  
H30      H      0.194990000000     0.735140000000     0.440510000000     0.0357602  
H31      H      0.187340000000     0.823460000000     0.440720000000     0.0542023  
H32      H      0.258170000000     0.673110000000     0.440680000000     0.0369885  
H33      H      0.144600000000     0.781290000000     0.544960000000     0.0636218  
H34      H      0.382020000000     0.693820000000     0.521530000000     0.0504868  
H35      H      0.275770000000     0.593920000000     0.467010000000     0.0517939  
H36      H      0.237930000000     0.774850000000     0.545930000000     0.0359686  
H37      H      0.340190000000     0.533340000000     0.467680000000     0.0207068  
H38      H      0.073060000000     0.813970000000     0.570420000000     0.0865027  
H39      H      0.032860000000     0.852390000000     0.548100000000     0.105306   
H40      H      0.871950000000     0.883810000000     0.542400000000     0.0231559  
H41      H      0.656260000000     0.525530000000     0.488090000000     0.00991783 
H42      H      0.721610000000     0.800810000000     0.439850000000     0.0372606  
H43      H      0.745850000000     0.662730000000     0.520180000000     0.0356236  
H44      H      0.719530000000     0.594560000000     0.481080000000     0.0544965  
H45      H      0.806580000000     0.733570000000     0.521670000000     0.0375264  
H46      H      0.594950000000     0.691100000000     0.477730000000     0.0661086  
H47      H      0.803900000000     0.819930000000     0.539260000000     0.0523987  
H48      H      0.814920000000     0.822010000000     0.426990000000     0.0527049  
H49      H      0.661390000000     0.728730000000     0.437520000000     0.0352574  
H50      H      0.882430000000     0.886720000000     0.430880000000     0.0246921  
H51      H      0.507080000000     0.653440000000     0.481780000000     0.102941   
H52      H      0.500150000000     0.587600000000     0.490090000000     0.329572   
H53      H      0.668740000000     0.430410000000     0.477340000000     0.0209833  
H54      H      0.874840000000     0.070280000000     0.541470000000     0.0233644  
H55      H      0.787630000000     0.324360000000     0.503130000000     0.0362963  
H56      H      0.729680000000     0.149950000000     0.491480000000     0.0372683  
H57      H      0.809630000000     0.129330000000     0.542480000000     0.0557581  
H58      H      0.665570000000     0.210850000000     0.491440000000     0.0368243  
H59      H      0.870590000000     0.192590000000     0.447870000000     0.0645615  
H60      H      0.731380000000     0.369670000000     0.475500000000     0.050342   
H61      H      0.618650000000     0.265010000000     0.519740000000     0.0511646  
H62      H      0.851090000000     0.263240000000     0.500370000000     0.0367543  
H63      H      0.555910000000     0.326160000000     0.518680000000     0.023828   
H64      H      0.946000000000     0.163940000000     0.424100000000     0.0856403  
H65      H      0.982100000000     0.120180000000     0.444520000000     0.100185   
H66      H      0.379280000000     0.407720000000     0.458480000000     0.0137626  
H67      H      0.146220000000     0.057910000000     0.552200000000     0.0229074  
H68      H      0.351050000000     0.240660000000     0.460920000000     0.0380115  
H69      H      0.237910000000     0.200850000000     0.562480000000     0.0358449  
H70      H      0.222720000000     0.111740000000     0.558070000000     0.0558068  
H71      H      0.297210000000     0.273280000000     0.564260000000     0.0379065  
H72      H      0.198990000000     0.166730000000     0.454870000000     0.0652212  
H73      H      0.324540000000     0.331500000000     0.461920000000     0.0510254  
H74      H      0.396520000000     0.299910000000     0.560230000000     0.0516059  
H75      H      0.292850000000     0.167460000000     0.459350000000     0.0355124  
H76      H      0.450590000000     0.376210000000     0.554420000000     0.0162677  
H77      H      0.123470000000     0.143740000000     0.425320000000     0.0851878  
H78      H      0.072310000000     0.108630000000     0.444490000000     0.100136   
H79      H      0.454650000000     0.632380000000     0.010870000000     0.0244224  
H80      H      0.075080000000     0.835400000000     0.954460000000     0.0237424  
H81      H      0.343130000000     0.745420000000     0.984260000000     0.0363017  
H82      H      0.158810000000     0.694410000000     0.002780000000     0.0370503  
H83      H      0.133880000000     0.770550000000     0.951780000000     0.0555436  
H84      H      0.222070000000     0.632630000000     0.002050000000     0.0369102  
H85      H      0.210830000000     0.826610000000     0.043380000000     0.064562   
H86      H      0.391690000000     0.692950000000     0.012360000000     0.0507778  
H87      H      0.276990000000     0.586070000000     0.973180000000     0.0510689  
H88      H      0.279880000000     0.806660000000     0.987710000000     0.0367519  
H89      H      0.340440000000     0.525640000000     0.974510000000     0.024088   
H90      H      0.186740000000     0.899170000000     0.067830000000     0.0851459  
H91      H      0.141990000000     0.936180000000     0.049040000000     0.100723   
H92      H      0.565220000000     0.601440000000     0.964220000000     0.0146342  
H93      H      0.913700000000     0.855710000000     0.066320000000     0.0221176  
H94      H      0.643930000000     0.732810000000     0.017380000000     0.0371598  
H95      H      0.829470000000     0.709260000000     0.036070000000     0.0364749  
H96      H      0.848680000000     0.789370000000     0.074030000000     0.0563401  
H97      H      0.768660000000     0.638040000000     0.031170000000     0.0374143  
H98      H      0.776820000000     0.828980000000     0.978140000000     0.0661023  
H99      H      0.627740000000     0.670920000000     0.973000000000     0.0505606  
H100     H      0.694690000000     0.592500000000     0.057730000000     0.0507358  
H101     H      0.704950000000     0.803650000000     0.021460000000     0.0355105  
H102     H      0.631520000000     0.523850000000     0.046290000000     0.0146792  
H103     H      0.806140000000     0.901610000000     0.950230000000     0.0870412  
H104     H      0.856190000000     0.941190000000     0.966980000000     0.104447   
H105     H      0.914680000000     0.100440000000     0.054420000000     0.025414   
H106     H      0.670240000000     0.424650000000     0.992630000000     0.0235112  
H107     H      0.842060000000     0.246630000000     0.030060000000     0.0377506  
H108     H      0.674090000000     0.213600000000     0.970530000000     0.0362784  
H109     H      0.734630000000     0.365230000000     0.990920000000     0.0550192  
H110     H      0.737420000000     0.151670000000     0.969980000000     0.0372613  
H111     H      0.619140000000     0.252110000000     0.015440000000     0.064407   
H112     H      0.853460000000     0.163560000000     0.054610000000     0.0514585  
H113     H      0.824130000000     0.137120000000     0.945470000000     0.0511586  
H114     H      0.778600000000     0.308530000000     0.030720000000     0.0358289  
H115     H      0.885750000000     0.074490000000     0.946010000000     0.0237351  
H116     H      0.537290000000     0.273570000000     0.032130000000     0.0866039  
H117     H      0.521730000000     0.334210000000     0.037960000000     0.105134   
H118     H      0.431310000000     0.356090000000     0.034910000000     0.00955324 
H119     H      0.096860000000     0.090310000000     0.932920000000     0.0227148  
H120     H      0.260320000000     0.297100000000     0.029790000000     0.0375881  
H121     H      0.245750000000     0.193910000000     0.923630000000     0.0355516  
H122     H      0.152150000000     0.164050000000     0.926760000000     0.0558318  
H123     H      0.308250000000     0.264400000000     0.925050000000     0.0378209  
H124     H      0.216690000000     0.139650000000     0.027920000000     0.0655592  
H125     H      0.359750000000     0.293820000000     0.029800000000     0.0504173  
H126     H      0.315720000000     0.359880000000     0.932920000000     0.0513883  
H127     H      0.197510000000     0.227460000000     0.028270000000     0.0361909  
H128     H      0.387990000000     0.421530000000     0.940310000000     0.0149442  
H129     H      0.195620000000     0.065510000000     0.056230000000     0.0855514  
H130     H      0.154450000000     0.019060000000     0.037630000000     0.0989708  
N1       N      0.510940000000     0.500500000000     0.597100000000    -0.226768   
N2       N      0.521680000000     0.477860000000     0.894910000000    -0.208249   
N3       N      0.419400000000     0.505760000000     0.602620000000    -0.220372   
N4       N      0.500360000000     0.467820000000     0.394270000000    -0.22635    
N5       N      0.489550000000     0.472180000000     0.098160000000    -0.208193   
N6       N      0.586990000000     0.501900000000     0.384740000000    -0.219261   
N7       N      0.098310000000     0.869840000000     0.493880000000    -0.208351   
N8       N      0.397960000000     0.578920000000     0.493820000000    -0.222319   
N9       N      0.068230000000     0.836770000000     0.549020000000    -0.218263   
N10      N      0.591970000000     0.569290000000     0.486890000000    -0.291503   
N11      N      0.882980000000     0.888990000000     0.486920000000    -0.197406   
N12      N      0.522840000000     0.619760000000     0.485140000000    -0.301766   
N13      N      0.910640000000     0.095920000000     0.493790000000    -0.208985   
N14      N      0.607510000000     0.382980000000     0.498090000000    -0.205281   
N15      N      0.947740000000     0.137450000000     0.443530000000    -0.21869    
N16      N      0.127850000000     0.081000000000     0.500290000000    -0.215236   
N17      N      0.417240000000     0.395420000000     0.506270000000    -0.263716   
N18      N      0.111100000000     0.120350000000     0.445550000000    -0.218904   
N19      N      0.107900000000     0.869170000000     0.000620000000    -0.208423   
N20      N      0.402400000000     0.574320000000     0.992760000000    -0.204109   
N21      N      0.157640000000     0.902430000000     0.049330000000    -0.218914   
N22      N      0.883670000000     0.879880000000     0.017530000000    -0.215651   
N23      N      0.595690000000     0.559530000000     0.004710000000    -0.264315   
N24      N      0.836240000000     0.907140000000     0.968160000000    -0.219605   
N25      N      0.606580000000     0.373740000000     0.005020000000    -0.220428   
N26      N      0.904920000000     0.082520000000     0.000250000000    -0.19105    
N27      N      0.546890000000     0.310410000000     0.027210000000    -0.218686   
N28      N      0.123060000000     0.073500000000     0.984470000000    -0.215447   
N29      N      0.413060000000     0.391470000000     0.987840000000    -0.264417   
N30      N      0.168820000000     0.055230000000     0.036850000000    -0.218973   
O1       O      0.049580000000     0.915690000000     0.972460000000    -0.392949   
O2       O      0.950040000000     0.024690000000     0.971820000000    -0.39517    
O3       O      0.059430000000     0.019470000000     0.963610000000    -0.403214   
O4       O      0.939730000000     0.921830000000     0.980670000000    -0.405412   
O5       O      0.950560000000     0.930020000000     0.038060000000    -0.403857   
O6       O      0.069490000000     0.028070000000     0.020970000000    -0.407767   
O7       O      0.960320000000     0.033750000000     0.029140000000    -0.391009   
O8       O      0.060110000000     0.924940000000     0.029620000000    -0.397521   
O9       O      0.054840000000     0.928630000000     0.464830000000    -0.392113   
O10      O      0.961470000000     0.042780000000     0.464690000000    -0.395907   
O11      O      0.070410000000     0.032800000000     0.468080000000    -0.408774   
O12      O      0.945940000000     0.938760000000     0.461180000000    -0.403836   
O13      O      0.942020000000     0.934920000000     0.519160000000    -0.407598   
O14      O      0.065210000000     0.030620000000     0.525960000000    -0.405211   
O15      O      0.955750000000     0.038390000000     0.522480000000    -0.394615   
O16      O      0.051110000000     0.926300000000     0.522670000000    -0.395839   
O17      O      0.542100000000     0.508050000000     0.949270000000    -0.480984   
O18      O      0.529650000000     0.500500000000     0.048450000000    -0.48187    
O19      O      0.585760000000     0.453980000000     0.001420000000    -0.469616   
O20      O      0.485560000000     0.551780000000     0.999470000000    -0.469213   
O21      O      0.424540000000     0.494860000000     0.988570000000    -0.471453   
O22      O      0.523020000000     0.396720000000     0.999060000000    -0.47059    
O23      O      0.464510000000     0.446000000000     0.043510000000    -0.479112   
O24      O      0.486500000000     0.444770000000     0.944830000000    -0.482129   
O25      O      0.531130000000     0.506010000000     0.443890000000    -0.490605   
O26      O      0.545800000000     0.513730000000     0.542800000000    -0.482535   
O27      O      0.585520000000     0.462000000000     0.491270000000    -0.478888   
O28      O      0.482550000000     0.556340000000     0.495430000000    -0.682754   
O29      O      0.419430000000     0.499190000000     0.493360000000    -0.480638   
O30      O      0.524370000000     0.406170000000     0.503930000000    -0.470483   
O31      O      0.473060000000     0.468950000000     0.547530000000    -0.480581   
O32      O      0.472490000000     0.445570000000     0.449230000000    -0.47758    


