data_structure

_audit_creation_method RASPA-1.0
_audit_creation_date 2023-5-19
_audit_author_name 'Poobodin Mano'

_cell_length_a    39.0274
_cell_length_b    39.035
_cell_length_c    39.0338
_cell_angle_alpha 90
_cell_angle_beta  90
_cell_angle_gamma 90
_cell_volume      59465.4

_symmetry_cell_setting          triclinic
_symmetry_space_group_name_Hall 'P 1'
_symmetry_space_group_name_H-M  'P 1'
_symmetry_Int_Tables_number     1

_symmetry_equiv_pos_as_xyz 'x,y,z'

loop_
_atom_site_label
_atom_site_type_symbol
_atom_site_fract_x
_atom_site_fract_y
_atom_site_fract_z
_atom_site_charge
C1       C      0.994940000000     0.071440000000     0.502400000000     0.40714    
C2       C      0.994100000000     0.934340000000     0.501490000000     0.407095   
C3       C      0.926420000000     0.003260000000     0.502650000000     0.406285   
C4       C      0.063160000000     0.002420000000     0.500910000000     0.40571    
C5       C      0.990590000000     0.434540000000     0.489650000000     0.40602    
C6       C      0.990140000000     0.571290000000     0.487590000000     0.405819   
C7       C      0.989710000000     0.501660000000     0.420040000000     0.407317   
C8       C      0.990600000000     0.504180000000     0.557090000000     0.407339   
C9       C      0.563320000000     0.990440000000     0.501350000000     0.407461   
C10      C      0.426320000000     0.989860000000     0.497180000000     0.407398   
C11      C      0.496850000000     0.987300000000     0.430870000000     0.407623   
C12      C      0.492840000000     0.993300000000     0.567730000000     0.408031   
C13      C      0.498920000000     0.991800000000     0.067660000000     0.406076   
C14      C      0.497800000000     0.991150000000     0.930940000000     0.40626    
C15      C      0.495410000000     0.059970000000     0.998730000000     0.407175   
C16      C      0.501590000000     0.923080000000     0.999840000000     0.407289   
C17      C      0.070250000000     0.499500000000     0.989500000000     0.405857   
C18      C      0.933390000000     0.502780000000     0.987610000000     0.407343   
C19      C      0.001060000000     0.500510000000     0.056890000000     0.405978   
C20      C      0.002730000000     0.501830000000     0.920170000000     0.405872   
C21      C      0.501990000000     0.423160000000     0.997900000000     0.406134   
C22      C      0.501470000000     0.559850000000     0.998450000000     0.406076   
C23      C      0.433350000000     0.491120000000     0.000130000000     0.407567   
C24      C      0.570220000000     0.491960000000     0.996170000000     0.405568   
C25      C      0.842740000000     0.531700000000     0.985810000000    -0.106351   
C26      C      0.624070000000     0.492480000000     0.024980000000     0.0724658  
C27      C      0.622280000000     0.493380000000     0.964280000000     0.0724613  
C28      C      0.659840000000     0.493420000000     0.024390000000    -0.0931619  
C29      C      0.735070000000     0.475680000000     0.014250000000    -0.0359357  
C30      C      0.770840000000     0.477070000000     0.013250000000    -0.034369   
C31      C      0.715310000000     0.495910000000     0.991940000000    -0.00654403 
C32      C      0.658020000000     0.494430000000     0.962780000000    -0.0932623  
C33      C      0.787680000000     0.498810000000     0.989990000000    -0.00940622 
C34      C      0.845290000000     0.470580000000     0.991190000000    -0.0967576  
C35      C      0.767930000000     0.519050000000     0.967690000000    -0.0343344  
C36      C      0.880950000000     0.472450000000     0.990300000000     0.072421   
C37      C      0.878650000000     0.533080000000     0.984980000000     0.104517   
C38      C      0.732170000000     0.517580000000     0.968610000000    -0.0359448  
C39      C      0.677270000000     0.494520000000     0.993050000000     0.0493461  
C40      C      0.825720000000     0.500380000000     0.989020000000     0.0555019  
C41      C      0.342840000000     0.489490000000     0.029440000000    -0.106282   
C42      C      0.122440000000     0.467840000000     0.990860000000     0.0725631  
C43      C      0.123960000000     0.528550000000     0.990700000000     0.0725224  
C44      C      0.158170000000     0.466480000000     0.992050000000    -0.0933983  
C45      C      0.232230000000     0.472370000000     0.015430000000    -0.0358735  
C46      C      0.267990000000     0.471490000000     0.016850000000    -0.0343209  
C47      C      0.215320000000     0.495870000000     0.994010000000    -0.00657535 
C48      C      0.159730000000     0.528120000000     0.991780000000    -0.0933925  
C49      C      0.287680000000     0.494020000000     0.996800000000    -0.00946373 
C50      C      0.345150000000     0.495410000000     0.968360000000    -0.0967969  
C51      C      0.270770000000     0.517480000000     0.975330000000    -0.0343774  
C52      C      0.380800000000     0.494400000000     0.970070000000     0.0723903  
C53      C      0.378750000000     0.488540000000     0.030660000000     0.104555   
C54      C      0.235000000000     0.518450000000     0.974000000000    -0.0360563  
C55      C      0.177290000000     0.496840000000     0.992560000000     0.0494512  
C56      C      0.325710000000     0.493010000000     0.998220000000     0.0554832  
C57      C      0.532820000000     0.833280000000     0.002250000000    -0.106413   
C58      C      0.500060000000     0.612990000000     0.968420000000     0.0724247  
C59      C      0.502030000000     0.612610000000     0.029120000000     0.0726634  
C60      C      0.499800000000     0.648760000000     0.968200000000    -0.0933508  
C61      C      0.479670000000     0.723540000000     0.976960000000    -0.0360149  
C62      C      0.479880000000     0.759340000000     0.977170000000    -0.0342915  
C63      C      0.500870000000     0.704970000000     0.999400000000    -0.00654851 
C64      C      0.501870000000     0.648360000000     0.029820000000    -0.093482   
C65      C      0.501390000000     0.777380000000     0.999750000000    -0.00948459 
C66      C      0.471590000000     0.834180000000     0.997500000000    -0.0967519  
C67      C      0.522520000000     0.758800000000     0.022220000000    -0.0342053  
C68      C      0.472560000000     0.869880000000     0.997770000000     0.0723064  
C69      C      0.533300000000     0.869190000000     0.002470000000     0.104584   
C70      C      0.522250000000     0.723020000000     0.022070000000    -0.0359701  
C71      C      0.500780000000     0.666910000000     0.999130000000     0.0493918  
C72      C      0.501910000000     0.815430000000     0.999770000000     0.055553   
C73      C      0.464900000000     0.150060000000     0.996120000000    -0.106435   
C74      C      0.500250000000     0.370250000000     0.967470000000     0.0726409  
C75      C      0.502470000000     0.370170000000     0.028170000000     0.0727819  
C76      C      0.499440000000     0.334480000000     0.967000000000    -0.0932529  
C77      C      0.520070000000     0.259220000000     0.020320000000    -0.0359418  
C78      C      0.519050000000     0.223440000000     0.020440000000    -0.0341625  
C79      C      0.499170000000     0.278060000000     0.997840000000    -0.00646749 
C80      C      0.501790000000     0.334410000000     0.028610000000    -0.0931601  
C81      C      0.497040000000     0.205670000000     0.998150000000    -0.00946268 
C82      C      0.526150000000     0.148590000000     0.000390000000    -0.0967854  
C83      C      0.476110000000     0.224510000000     0.975680000000    -0.0342585  
C84      C      0.524840000000     0.112920000000     0.000360000000     0.072611   
C85      C      0.464080000000     0.114130000000     0.996170000000     0.104461   
C86      C      0.477200000000     0.260290000000     0.975500000000    -0.0359515  
C87      C      0.500170000000     0.316100000000     0.997810000000     0.0494522  
C88      C      0.496010000000     0.167620000000     0.998260000000     0.0556017  
C89      C      0.489130000000     0.024240000000     0.657560000000    -0.106409   
C90      C      0.466800000000     0.990150000000     0.878390000000     0.0725071  
C91      C      0.527500000000     0.992150000000     0.877570000000     0.0725819  
C92      C      0.465830000000     0.990380000000     0.842640000000    -0.0936045  
C93      C      0.471630000000     0.012170000000     0.768210000000    -0.0359388  
C94      C      0.470970000000     0.012670000000     0.732430000000    -0.0343467  
C95      C      0.495750000000     0.992030000000     0.785810000000    -0.00653039 
C96      C      0.527460000000     0.992310000000     0.841780000000    -0.0932454  
C97      C      0.494360000000     0.992970000000     0.713410000000    -0.00943157 
C98      C      0.497180000000     0.963370000000     0.656550000000    -0.0968039  
C99      C      0.518450000000     0.972780000000     0.731000000000    -0.0343174  
C100     C      0.496370000000     0.964320000000     0.620860000000     0.0725798  
C101     C      0.488360000000     0.024700000000     0.621650000000     0.104747   
C102     C      0.519190000000     0.972370000000     0.766800000000    -0.0360358  
C103     C      0.496370000000     0.991520000000     0.823870000000     0.0494897  
C104     C      0.493630000000     0.993530000000     0.675350000000     0.0555722  
C105     C      0.501200000000     0.956730000000     0.340860000000    -0.106267   
C106     C      0.529530000000     0.992030000000     0.120510000000     0.0723384  
C107     C      0.468790000000     0.991030000000     0.120740000000     0.0726315  
C108     C      0.530120000000     0.991540000000     0.156300000000    -0.0934683  
C109     C      0.476200000000     0.010570000000     0.231430000000    -0.0360029  
C110     C      0.476070000000     0.009830000000     0.267220000000    -0.0344203  
C111     C      0.499410000000     0.990290000000     0.212780000000    -0.0066327  
C112     C      0.468460000000     0.990710000000     0.156500000000    -0.0933617  
C113     C      0.499020000000     0.988680000000     0.285170000000    -0.00942394 
C114     C      0.495880000000     0.017890000000     0.342160000000    -0.0968006  
C115     C      0.522240000000     0.968400000000     0.266540000000    -0.0344895  
C116     C      0.495570000000     0.016650000000     0.377840000000     0.0723494  
C117     C      0.500740000000     0.955960000000     0.376790000000     0.10411    
C118     C      0.522490000000     0.969270000000     0.230740000000    -0.0359517  
C119     C      0.499350000000     0.990890000000     0.174740000000     0.0494741  
C120     C      0.498700000000     0.987760000000     0.323220000000     0.0554182  
C121     C      0.963760000000     0.507930000000     0.648250000000    -0.106415   
C122     C      0.003190000000     0.532850000000     0.867610000000     0.0727039  
C123     C      0.002510000000     0.472130000000     0.866800000000     0.0726018  
C124     C      0.002750000000     0.533800000000     0.831850000000    -0.0932263  
C125     C      0.020470000000     0.480670000000     0.755610000000    -0.0360833  
C126     C      0.018930000000     0.481050000000     0.719820000000    -0.0342912  
C127     C      0.000840000000     0.503810000000     0.775030000000    -0.00636107 
C128     C      0.002160000000     0.472150000000     0.831010000000    -0.093176   
C129     C      0.997600000000     0.504450000000     0.702670000000    -0.00942513 
C130     C      0.024700000000     0.501220000000     0.644530000000    -0.0966473  
C131     C      0.978100000000     0.527680000000     0.722100000000    -0.0342757  
C132     C      0.022080000000     0.501500000000     0.608890000000     0.0723679  
C133     C      0.961620000000     0.508140000000     0.612400000000     0.104604   
C134     C      0.979730000000     0.527390000000     0.757840000000    -0.0360067  
C135     C      0.002100000000     0.503230000000     0.813080000000     0.0494168  
C136     C      0.995370000000     0.504470000000     0.664660000000     0.0555215  
C137     C      0.961840000000     0.498240000000     0.329140000000    -0.1064     
C138     C      0.999280000000     0.469740000000     0.109610000000     0.0723423  
C139     C      0.001390000000     0.530430000000     0.110100000000     0.0724293  
C140     C      0.998570000000     0.469020000000     0.145380000000    -0.0933422  
C141     C      0.976150000000     0.477020000000     0.219550000000    -0.035954   
C142     C      0.974710000000     0.477150000000     0.255310000000    -0.034436   
C143     C      0.998220000000     0.499460000000     0.202030000000    -0.00658336 
C144     C      0.000810000000     0.530630000000     0.145870000000    -0.0933057  
C145     C      0.995350000000     0.499660000000     0.274400000000    -0.0093825  
C146     C      0.023030000000     0.502410000000     0.332270000000    -0.0966631  
C147     C      0.017620000000     0.521920000000     0.256910000000    -0.0344378  
C148     C      0.020720000000     0.502730000000     0.367920000000     0.0722505  
C149     C      0.960010000000     0.498640000000     0.365010000000     0.10454    
C150     C      0.018980000000     0.521870000000     0.221130000000    -0.0359779  
C151     C      0.999310000000     0.499700000000     0.163980000000     0.0493132  
C152     C      0.993420000000     0.500110000000     0.312420000000     0.0554425  
C153     C      0.335460000000     0.962170000000     0.493110000000    -0.106292   
C154     C      0.116600000000     0.001530000000     0.530480000000     0.0721787  
C155     C      0.115650000000     0.001670000000     0.469760000000     0.0723215  
C156     C      0.152390000000     0.000660000000     0.530370000000    -0.093224   
C157     C      0.227860000000     0.018250000000     0.521640000000    -0.0359591  
C158     C      0.263650000000     0.016720000000     0.521060000000    -0.0342913  
C159     C      0.208310000000     0.998650000000     0.498600000000    -0.00654319 
C160     C      0.151400000000     0.000740000000     0.468730000000    -0.0933833  
C161     C      0.280690000000     0.995460000000     0.497500000000    -0.00932082 
C162     C      0.338600000000     0.023080000000     0.500360000000    -0.0965805  
C163     C      0.261130000000     0.975910000000     0.474430000000    -0.0344019  
C164     C      0.374250000000     0.020830000000     0.499870000000     0.0725468  
C165     C      0.371340000000     0.960420000000     0.492620000000     0.104606   
C166     C      0.225370000000     0.977510000000     0.474960000000    -0.0359734  
C167     C      0.170250000000     0.000120000000     0.499250000000     0.049284   
C168     C      0.318730000000     0.993560000000     0.497070000000     0.0553996  
C169     C      0.654480000000     0.963670000000     0.506490000000    -0.106354   
C170     C      0.873790000000     0.002750000000     0.533620000000     0.0729227  
C171     C      0.873110000000     0.003450000000     0.472890000000     0.0727479  
C172     C      0.838020000000     0.002210000000     0.534470000000    -0.0931212  
C173     C      0.762030000000     0.021000000000     0.481210000000    -0.0360538  
C174     C      0.726250000000     0.019370000000     0.481180000000    -0.0340834  
C175     C      0.781260000000     0.001030000000     0.504210000000    -0.00624124 
C176     C      0.837330000000     0.002990000000     0.472820000000    -0.0931558  
C177     C      0.708890000000     0.997650000000     0.504070000000    -0.00945828 
C178     C      0.650760000000     0.024630000000     0.500100000000    -0.0966913  
C179     C      0.728130000000     0.977870000000     0.527230000000    -0.034153   
C180     C      0.615130000000     0.021940000000     0.499620000000     0.0723243  
C181     C      0.618620000000     0.961450000000     0.505930000000     0.104454   
C182     C      0.763880000000     0.979550000000     0.527320000000    -0.0360883  
C183     C      0.819320000000     0.002240000000     0.503840000000     0.0494882  
C184     C      0.670890000000     0.995330000000     0.503560000000     0.0555966  
C185     C      0.990600000000     0.843050000000     0.528080000000    -0.10633    
C186     C      0.020460000000     0.624280000000     0.486860000000     0.072446   
C187     C      0.959730000000     0.624260000000     0.488330000000     0.0724293  
C188     C      0.020920000000     0.660060000000     0.487330000000    -0.0931342  
C189     C      0.012850000000     0.735550000000     0.469500000000    -0.0360747  
C190     C      0.013300000000     0.771320000000     0.471320000000    -0.0343379  
C191     C      0.990190000000     0.716450000000     0.489980000000    -0.00645737 
C192     C      0.959280000000     0.660040000000     0.488960000000    -0.0931708  
C193     C      0.991220000000     0.788790000000     0.493780000000    -0.00940728 
C194     C      0.994460000000     0.847030000000     0.466930000000    -0.0965744  
C195     C      0.968440000000     0.769690000000     0.514120000000    -0.0343454  
C196     C      0.995000000000     0.882640000000     0.469750000000     0.0721713  
C197     C      0.991270000000     0.878890000000     0.530430000000     0.104468   
C198     C      0.967880000000     0.733940000000     0.512190000000    -0.0359283  
C199     C      0.990110000000     0.678400000000     0.488570000000     0.0492942  
C200     C      0.992130000000     0.826770000000     0.496260000000     0.055423   
C201     C      0.992360000000     0.162410000000     0.530170000000    -0.106287   
C202     C      0.960530000000     0.381410000000     0.491520000000     0.0725826  
C203     C      0.021240000000     0.381740000000     0.489710000000     0.0725224  
C204     C      0.960300000000     0.345630000000     0.492460000000    -0.0932816  
C205     C      0.969490000000     0.271730000000     0.515570000000    -0.0359736  
C206     C      0.970130000000     0.235970000000     0.517230000000    -0.0344167  
C207     C      0.991550000000     0.289420000000     0.493270000000    -0.00654551 
C208     C      0.021930000000     0.345980000000     0.490460000000    -0.0933346  
C209     C      0.992730000000     0.217070000000     0.496510000000    -0.00938922 
C210     C      0.995530000000     0.159160000000     0.468940000000    -0.096634   
C211     C      0.014610000000     0.234740000000     0.474000000000    -0.0344409  
C212     C      0.995950000000     0.123520000000     0.471310000000     0.0721981  
C213     C      0.992920000000     0.126540000000     0.532080000000     0.104347   
C214     C      0.014090000000     0.270520000000     0.472470000000    -0.0359901  
C215     C      0.991240000000     0.327460000000     0.491950000000     0.0493951  
C216     C      0.993590000000     0.179060000000     0.498530000000     0.0554175  
Cu1      Cu     0.994390000000     0.003100000000     0.470290000000     0.844251   
Cu2      Cu     0.995170000000     0.002680000000     0.533320000000     0.847678   
Cu3      Cu     0.958810000000     0.502820000000     0.488780000000     0.847927   
Cu4      Cu     0.021850000000     0.503010000000     0.488350000000     0.843741   
Cu5      Cu     0.494920000000     0.958870000000     0.500650000000     0.849048   
Cu6      Cu     0.494700000000     0.021700000000     0.497960000000     0.844432   
Cu7      Cu     0.529920000000     0.992890000000     0.999050000000     0.846688   
Cu8      Cu     0.466940000000     0.990140000000     0.999550000000     0.846698   
Cu9      Cu     0.002650000000     0.532670000000     0.988840000000     0.846701   
Cu10     Cu     0.001170000000     0.469580000000     0.988230000000     0.845187   
Cu11     Cu     0.502770000000     0.491370000000     0.029680000000     0.847247   
Cu12     Cu     0.500960000000     0.491650000000     0.966590000000     0.845568   
H1       H      0.608440000000     0.493310000000     0.940200000000     0.0254993  
H2       H      0.894600000000     0.448330000000     0.992230000000     0.0261387  
H3       H      0.717700000000     0.533740000000     0.951310000000     0.0378624  
H4       H      0.785310000000     0.461380000000     0.030970000000     0.037217   
H5       H      0.833150000000     0.445710000000     0.993220000000     0.0534588  
H6       H      0.722880000000     0.458490000000     0.032300000000     0.0376871  
H7       H      0.828070000000     0.555230000000     0.984260000000     0.0578322  
H8       H      0.670460000000     0.494800000000     0.937980000000     0.0526789  
H9       H      0.673710000000     0.493840000000     0.048430000000     0.0525111  
H10      H      0.780130000000     0.535800000000     0.949230000000     0.037649   
H11      H      0.611670000000     0.491870000000     0.049830000000     0.025396   
H12      H      0.901920000000     0.588920000000     0.011040000000     0.0394848  
H13      H      0.111450000000     0.553350000000     0.990320000000     0.0253888  
H14      H      0.394350000000     0.496480000000     0.945910000000     0.026117   
H15      H      0.222760000000     0.536630000000     0.956990000000     0.0377286  
H16      H      0.280240000000     0.452880000000     0.033390000000     0.0376808  
H17      H      0.332910000000     0.497680000000     0.943550000000     0.0534146  
H18      H      0.217810000000     0.454860000000     0.031420000000     0.0378392  
H19      H      0.328250000000     0.487780000000     0.053020000000     0.0578219  
H20      H      0.173480000000     0.552200000000     0.992530000000     0.0526097  
H21      H      0.170730000000     0.441740000000     0.992170000000     0.0526459  
H22      H      0.285200000000     0.535390000000     0.959800000000     0.0371773  
H23      H      0.108720000000     0.443690000000     0.990450000000     0.0254154  
H24      H      0.402310000000     0.514230000000     0.086560000000     0.0393575  
H25      H      0.502810000000     0.599340000000     0.053510000000     0.025182   
H26      H      0.448090000000     0.882900000000     0.995900000000     0.0261894  
H27      H      0.539130000000     0.709490000000     0.039450000000     0.0377233  
H28      H      0.463510000000     0.772910000000     0.959350000000     0.037343   
H29      H      0.447020000000     0.821370000000     0.995960000000     0.0534301  
H30      H      0.462650000000     0.710390000000     0.959430000000     0.0376604  
H31      H      0.556750000000     0.819240000000     0.003760000000     0.0579293  
H32      H      0.502210000000     0.661360000000     0.054330000000     0.0525227  
H33      H      0.499350000000     0.662090000000     0.943860000000     0.0525557  
H34      H      0.539110000000     0.771930000000     0.040190000000     0.0370465  
H35      H      0.499430000000     0.600010000000     0.943870000000     0.0252813  
H36      H      0.581410000000     0.892390000000     0.041040000000     0.0382736  
H37      H      0.503530000000     0.383250000000     0.052640000000     0.0257557  
H38      H      0.549230000000     0.099730000000     0.002100000000     0.0262942  
H39      H      0.460530000000     0.274060000000     0.958100000000     0.0378095  
H40      H      0.535270000000     0.209690000000     0.038270000000     0.0373725  
H41      H      0.550870000000     0.161160000000     0.001650000000     0.0535097  
H42      H      0.537510000000     0.272120000000     0.037620000000     0.0377786  
H43      H      0.441110000000     0.164330000000     0.994720000000     0.0579391  
H44      H      0.501990000000     0.321240000000     0.053040000000     0.0527402  
H45      H      0.498650000000     0.321330000000     0.942580000000     0.052639   
H46      H      0.459130000000     0.211570000000     0.957950000000     0.0371056  
H47      H      0.499690000000     0.383410000000     0.943020000000     0.0254502  
H48      H      0.415290000000     0.090980000000     0.958440000000     0.0383737  
H49      H      0.552140000000     0.992970000000     0.890380000000     0.0257406  
H50      H      0.499460000000     0.940000000000     0.607790000000     0.0260636  
H51      H      0.537880000000     0.956340000000     0.779590000000     0.0378457  
H52      H      0.451870000000     0.028220000000     0.719650000000     0.0375774  
H53      H      0.500240000000     0.938920000000     0.669330000000     0.0534854  
H54      H      0.453440000000     0.027870000000     0.782090000000     0.0376326  
H55      H      0.486400000000     0.048040000000     0.671640000000     0.0577494  
H56      H      0.551670000000     0.993580000000     0.828270000000     0.052712   
H57      H      0.441240000000     0.989280000000     0.829830000000     0.052535   
H58      H      0.537010000000     0.957550000000     0.717070000000     0.03712    
H59      H      0.442500000000     0.989200000000     0.891830000000     0.0250854  
H60      H      0.511360000000     0.081280000000     0.596950000000     0.039519   
H61      H      0.444260000000     0.990700000000     0.107710000000     0.0258294  
H62      H      0.493280000000     0.041010000000     0.390980000000     0.0261789  
H63      H      0.540470000000     0.953120000000     0.217110000000     0.0377209  
H64      H      0.457680000000     0.025540000000     0.280840000000     0.0372279  
H65      H      0.494290000000     0.042540000000     0.329510000000     0.0535081  
H66      H      0.458310000000     0.027270000000     0.218350000000     0.0378922  
H67      H      0.503140000000     0.932950000000     0.326630000000     0.0577722  
H68      H      0.444090000000     0.989820000000     0.169750000000     0.0527441  
H69      H      0.554570000000     0.992090000000     0.169410000000     0.0525491  
H70      H      0.540460000000     0.952090000000     0.279650000000     0.037799   
H71      H      0.553950000000     0.992600000000     0.107290000000     0.0249985  
H72      H      0.472900000000     0.900980000000     0.400040000000     0.0384132  
H73      H      0.002260000000     0.447480000000     0.879610000000     0.0254676  
H74      H      0.045830000000     0.498790000000     0.594730000000     0.0260891  
H75      H      0.964040000000     0.545330000000     0.772040000000     0.0379988  
H76      H      0.034070000000     0.462650000000     0.705590000000     0.0372217  
H77      H      0.049770000000     0.498880000000     0.656200000000     0.0534846  
H78      H      0.037240000000     0.462410000000     0.768070000000     0.0377496  
H79      H      0.940570000000     0.510240000000     0.663380000000     0.0578682  
H80      H      0.001290000000     0.447920000000     0.817520000000     0.0526669  
H81      H      0.003190000000     0.558400000000     0.819020000000     0.0527321  
H82      H      0.961700000000     0.546290000000     0.709650000000     0.0376864  
H83      H      0.003660000000     0.557150000000     0.881040000000     0.0257714  
H84      H      0.904690000000     0.482890000000     0.590870000000     0.0393532  
H85      H      0.002380000000     0.555000000000     0.097180000000     0.0252605  
H86      H      0.044710000000     0.504530000000     0.381810000000     0.026098   
H87      H      0.036500000000     0.539230000000     0.208410000000     0.0376723  
H88      H      0.957560000000     0.459430000000     0.268030000000     0.0376655  
H89      H      0.048080000000     0.503540000000     0.320370000000     0.0533612  
H90      H      0.959600000000     0.459670000000     0.205590000000     0.0377191  
H91      H      0.938440000000     0.496820000000     0.314230000000     0.0578507  
H92      H      0.001000000000     0.554960000000     0.159220000000     0.052495   
H93      H      0.997830000000     0.444510000000     0.158360000000     0.0525299  
H94      H      0.033650000000     0.539750000000     0.270870000000     0.037172   
H95      H      0.998740000000     0.445380000000     0.096290000000     0.0252647  
H96      H      0.904870000000     0.527640000000     0.386440000000     0.0392298  
H97      H      0.102160000000     0.002130000000     0.445490000000     0.0252236  
H98      H      0.388190000000     0.044680000000     0.502790000000     0.0262951  
H99      H      0.211080000000     0.961810000000     0.457080000000     0.0375691  
H100     H      0.277970000000     0.031880000000     0.539370000000     0.0374291  
H101     H      0.326690000000     0.048010000000     0.502980000000     0.0534304  
H102     H      0.215520000000     0.035060000000     0.539950000000     0.0376178  
H103     H      0.320580000000     0.938850000000     0.490540000000     0.0578972  
H104     H      0.164170000000     0.000830000000     0.444090000000     0.0523951  
H105     H      0.165920000000     0.999830000000     0.554590000000     0.052403   
H106     H      0.273470000000     0.959560000000     0.455710000000     0.0369476  
H107     H      0.103850000000     0.001700000000     0.555160000000     0.0250265  
H108     H      0.392620000000     0.914400000000     0.450570000000     0.0374628  
H109     H      0.885960000000     0.003800000000     0.448270000000     0.0255421  
H110     H      0.601010000000     0.045700000000     0.496860000000     0.0260613  
H111     H      0.777930000000     0.963600000000     0.545140000000     0.0379199  
H112     H      0.712200000000     0.034730000000     0.462830000000     0.0374166  
H113     H      0.662410000000     0.049740000000     0.498150000000     0.0533934  
H114     H      0.774630000000     0.038070000000     0.463330000000     0.0378552  
H115     H      0.669610000000     0.940500000000     0.508850000000     0.0580416  
H116     H      0.823920000000     0.002620000000     0.448530000000     0.0527544  
H117     H      0.825120000000     0.002080000000     0.559040000000     0.0527678  
H118     H      0.715520000000     0.961170000000     0.545460000000     0.0370524  
H119     H      0.887190000000     0.002700000000     0.557950000000     0.0260759  
H120     H      0.596770000000     0.912910000000     0.544730000000     0.0381084  
H121     H      0.935260000000     0.611120000000     0.488690000000     0.0255672  
H122     H      0.996770000000     0.896870000000     0.445960000000     0.0261346  
H123     H      0.950330000000     0.719980000000     0.528540000000     0.0379992  
H124     H      0.031330000000     0.785290000000     0.455500000000     0.0371307  
H125     H      0.995380000000     0.835470000000     0.441710000000     0.053363   
H126     H      0.030130000000     0.722850000000     0.451890000000     0.0376355  
H127     H      0.989190000000     0.827800000000     0.551260000000     0.0578923  
H128     H      0.934860000000     0.673220000000     0.489490000000     0.0526508  
H129     H      0.045360000000     0.673220000000     0.487380000000     0.0525737  
H130     H      0.950840000000     0.782400000000     0.531410000000     0.0377671  
H131     H      0.044940000000     0.611180000000     0.486180000000     0.0254117  
H132     H      0.020780000000     0.899370000000     0.585650000000     0.03922    
H133     H      0.045640000000     0.394990000000     0.488750000000     0.0253548  
H134     H      0.997370000000     0.109580000000     0.447330000000     0.026172   
H135     H      0.031170000000     0.283380000000     0.454780000000     0.0377989  
H136     H      0.952700000000     0.223100000000     0.534570000000     0.0377792  
H137     H      0.996220000000     0.171030000000     0.443860000000     0.0534342  
H138     H      0.952050000000     0.285540000000     0.532150000000     0.0378332  
H139     H      0.991300000000     0.177390000000     0.553550000000     0.057809   
H140     H      0.046440000000     0.332970000000     0.490430000000     0.0525917  
H141     H      0.935970000000     0.332300000000     0.493200000000     0.0527098  
H142     H      0.032490000000     0.220920000000     0.457900000000     0.0372382  
H143     H      0.935980000000     0.394400000000     0.491890000000     0.0255297  
H144     H      0.023320000000     0.105330000000     0.586540000000     0.0389905  
N1       N      0.897970000000     0.503270000000     0.987520000000    -0.196397   
N2       N      0.605380000000     0.492540000000     0.995150000000    -0.193659   
N3       N      0.397940000000     0.491250000000     0.000790000000    -0.196483   
N4       N      0.105410000000     0.498640000000     0.990300000000    -0.193727   
N5       N      0.502970000000     0.887700000000     0.000070000000    -0.196423   
N6       N      0.501190000000     0.595010000000     0.998660000000    -0.193955   
N7       N      0.494260000000     0.095360000000     0.998400000000    -0.196502   
N8       N      0.501650000000     0.388000000000     0.997830000000    -0.19376    
N9       N      0.492360000000     0.994570000000     0.603100000000    -0.196694   
N10      N      0.497390000000     0.991120000000     0.895780000000    -0.193878   
N11      N      0.497780000000     0.986130000000     0.395480000000    -0.196423   
N12      N      0.499100000000     0.991670000000     0.102830000000    -0.193778   
N13      N      0.990960000000     0.504690000000     0.592500000000    -0.196429   
N14      N      0.002870000000     0.502250000000     0.885000000000    -0.193624   
N15      N      0.989650000000     0.500980000000     0.384630000000    -0.196426   
N16      N      0.000600000000     0.500220000000     0.092060000000    -0.193766   
N17      N      0.390930000000     0.989900000000     0.496440000000    -0.196567   
N18      N      0.098330000000     0.001930000000     0.500400000000    -0.193824   
N19      N      0.598730000000     0.990780000000     0.502350000000    -0.196367   
N20      N      0.891240000000     0.003210000000     0.503060000000    -0.19358    
N21      N      0.993470000000     0.898920000000     0.501060000000    -0.196264   
N22      N      0.990100000000     0.606470000000     0.487500000000    -0.193595   
N23      N      0.994650000000     0.106860000000     0.502430000000    -0.196288   
N24      N      0.990770000000     0.399370000000     0.490270000000    -0.193719   
O1       O      0.994730000000     0.055080000000     0.473790000000    -0.397455   
O2       O      0.994060000000     0.951080000000     0.473090000000    -0.397338   
O3       O      0.942500000000     0.003410000000     0.473930000000    -0.397861   
O4       O      0.046350000000     0.002720000000     0.472610000000    -0.398273   
O5       O      0.047110000000     0.002400000000     0.529660000000    -0.398051   
O6       O      0.943180000000     0.002970000000     0.530980000000    -0.396755   
O7       O      0.994750000000     0.950800000000     0.529880000000    -0.396243   
O8       O      0.995340000000     0.054600000000     0.530580000000    -0.396161   
O9       O      0.961990000000     0.450850000000     0.489690000000    -0.3972     
O10      O      0.961650000000     0.554800000000     0.487930000000    -0.397317   
O11      O      0.961540000000     0.501890000000     0.436890000000    -0.396582   
O12      O      0.962210000000     0.503760000000     0.540610000000    -0.396791   
O13      O      0.019020000000     0.503750000000     0.540390000000    -0.397158   
O14      O      0.018340000000     0.502230000000     0.436380000000    -0.3974     
O15      O      0.018710000000     0.554930000000     0.487610000000    -0.397798   
O16      O      0.019040000000     0.451080000000     0.489090000000    -0.398026   
O17      O      0.546760000000     0.962110000000     0.502060000000    -0.395851   
O18      O      0.443030000000     0.961660000000     0.498960000000    -0.395805   
O19      O      0.496460000000     0.959700000000     0.448650000000    -0.395629   
O20      O      0.493450000000     0.964150000000     0.552410000000    -0.39794    
O21      O      0.493330000000     0.020880000000     0.549930000000    -0.396382   
O22      O      0.496090000000     0.016420000000     0.446230000000    -0.39844    
O23      O      0.442750000000     0.018420000000     0.496740000000    -0.397345   
O24      O      0.546690000000     0.018830000000     0.499480000000    -0.397648   
O25      O      0.527320000000     0.992950000000     0.051050000000    -0.397909   
O26      O      0.526470000000     0.992480000000     0.947080000000    -0.396988   
O27      O      0.524550000000     0.044600000000     0.998810000000    -0.398759   
O28      O      0.529130000000     0.940950000000     0.999360000000    -0.396192   
O29      O      0.472380000000     0.938350000000     0.999850000000    -0.397907   
O30      O      0.467790000000     0.042180000000     0.999140000000    -0.395143   
O31      O      0.469470000000     0.989960000000     0.947640000000    -0.398916   
O32      O      0.470310000000     0.990610000000     0.051420000000    -0.397899   
O33      O      0.054520000000     0.528420000000     0.989440000000    -0.397995   
O34      O      0.950630000000     0.530730000000     0.988200000000    -0.395795   
O35      O      0.001980000000     0.529170000000     0.040740000000    -0.398342   
O36      O      0.003160000000     0.530170000000     0.936900000000    -0.39772    
O37      O      0.001950000000     0.473120000000     0.936280000000    -0.397303   
O38      O      0.000530000000     0.472130000000     0.040220000000    -0.397823   
O39      O      0.949320000000     0.473940000000     0.987600000000    -0.398279   
O40      O      0.053160000000     0.471370000000     0.989000000000    -0.398115   
O41      O      0.502880000000     0.439490000000     0.026460000000    -0.397986   
O42      O      0.502410000000     0.543290000000     0.026880000000    -0.398631   
O43      O      0.450740000000     0.491120000000     0.027990000000    -0.395863   
O44      O      0.554630000000     0.491660000000     0.025170000000    -0.397833   
O45      O      0.552980000000     0.491920000000     0.968120000000    -0.397879   
O46      O      0.449140000000     0.491430000000     0.971210000000    -0.398422   
O47      O      0.500790000000     0.543580000000     0.969840000000    -0.398095   
O48      O      0.501200000000     0.439670000000     0.969420000000    -0.3976     
S1       S      0.896320000000     0.574460000000     0.979550000000    -0.0438531  
S2       S      0.396570000000     0.482840000000     0.071940000000    -0.0435982  
S3       S      0.574350000000     0.887910000000     0.006950000000    -0.042908   
S4       S      0.422840000000     0.095710000000     0.992400000000    -0.0431036  
S5       S      0.480700000000     0.065260000000     0.602940000000    -0.0443171  
S6       S      0.504820000000     0.914810000000     0.395330000000    -0.0422028  
S7       S      0.919940000000     0.514150000000     0.595600000000    -0.0436473  
S8       S      0.918180000000     0.495440000000     0.382210000000    -0.0432828  
S9       S      0.388690000000     0.919230000000     0.485110000000    -0.0429724  
S10      S      0.601820000000     0.919620000000     0.510640000000    -0.0418398  
S11      S      0.988460000000     0.895510000000     0.572510000000    -0.0433705  
S12      S      0.990780000000     0.109430000000     0.574000000000    -0.0431923  


