data_structure

_audit_creation_method RASPA-1.0
_audit_creation_date 2023-6-4
_audit_author_name 'Poobodin Mano'

_cell_length_a    26.6288
_cell_length_b    27.0536
_cell_length_c    38.496
_cell_angle_alpha 89.9988
_cell_angle_beta  89.9988
_cell_angle_gamma 93.4943
_cell_volume      27681.1

_symmetry_cell_setting          triclinic
_symmetry_space_group_name_Hall 'P 1'
_symmetry_space_group_name_H-M  'P 1'
_symmetry_Int_Tables_number     1

_symmetry_equiv_pos_as_xyz 'x,y,z'

loop_
_atom_site_label
_atom_site_type_symbol
_atom_site_fract_x
_atom_site_fract_y
_atom_site_fract_z
_atom_site_charge
C1       C      0.092500000000     0.944310000000     0.023840000000     0.398524   
C2       C      0.954720000000     0.081800000000     0.024000000000     0.398428   
C3       C      0.095690000000     0.083910000000     0.031800000000     0.412337   
C4       C      0.950880000000     0.942840000000     0.015960000000     0.412296   
C5       C      0.095780000000     0.949320000000     0.527350000000     0.398414   
C6       C      0.950570000000     0.079310000000     0.527300000000     0.398383   
C7       C      0.091420000000     0.089080000000     0.521580000000     0.412969   
C8       C      0.955000000000     0.939540000000     0.533300000000     0.413049   
C9       C      0.518430000000     0.507690000000     0.958810000000     0.475895   
C10      C      0.528320000000     0.519290000000     0.091090000000     0.476168   
C11      C      0.589710000000     0.447700000000     0.025180000000     0.463669   
C12      C      0.457280000000     0.578960000000     0.024470000000     0.464548   
C13      C      0.527660000000     0.519500000000     0.458760000000     0.476099   
C14      C      0.518400000000     0.508600000000     0.591140000000     0.476875   
C15      C      0.586760000000     0.446500000000     0.524590000000     0.463035   
C16      C      0.458990000000     0.582350000000     0.525660000000     0.464021   
C17      C      0.484360000000     0.472040000000     0.906530000000     0.0763031  
C18      C      0.482940000000     0.469240000000     0.870240000000    -0.095809   
C19      C      0.515320000000     0.500650000000     0.850330000000     0.0510339  
C20      C      0.548170000000     0.534740000000     0.867610000000    -0.0963365  
C21      C      0.548460000000     0.536690000000     0.903820000000     0.0767372  
C22      C      0.515080000000     0.498200000000     0.811750000000    -0.00765321 
C23      C      0.469590000000     0.493400000000     0.793160000000    -0.0353905  
C24      C      0.469620000000     0.493550000000     0.756800000000    -0.0354786  
C25      C      0.515170000000     0.498420000000     0.738240000000    -0.00756774 
C26      C      0.560640000000     0.501990000000     0.756900000000    -0.0355082  
C27      C      0.560590000000     0.501940000000     0.793170000000    -0.0354714  
C28      C      0.515490000000     0.501010000000     0.699630000000     0.0509351  
C29      C      0.482160000000     0.470650000000     0.679670000000    -0.0957813  
C30      C      0.483480000000     0.473680000000     0.643390000000     0.0763169  
C31      C      0.549660000000     0.536260000000     0.646150000000     0.0767062  
C32      C      0.549330000000     0.534190000000     0.682360000000    -0.0961389  
C33      C      0.496470000000     0.491770000000     0.403750000000     0.076587   
C34      C      0.496880000000     0.493760000000     0.367540000000    -0.0961787  
C35      C      0.531100000000     0.526570000000     0.350280000000     0.0509289  
C36      C      0.564680000000     0.556660000000     0.370220000000    -0.0957476  
C37      C      0.563140000000     0.553850000000     0.406500000000     0.0762252  
C38      C      0.531510000000     0.529070000000     0.311690000000    -0.00763042 
C39      C      0.486040000000     0.527010000000     0.293060000000    -0.0354912  
C40      C      0.486080000000     0.527090000000     0.256790000000    -0.0356013  
C41      C      0.531600000000     0.529160000000     0.238190000000    -0.00753275 
C42      C      0.577150000000     0.532370000000     0.256790000000    -0.0355185  
C43      C      0.577100000000     0.532360000000     0.293160000000    -0.0354177  
C44      C      0.531280000000     0.526670000000     0.199580000000     0.0508037  
C45      C      0.496550000000     0.494460000000     0.182260000000    -0.0961053  
C46      C      0.496240000000     0.492440000000     0.146060000000     0.0765672  
C47      C      0.564130000000     0.553220000000     0.143380000000     0.0761849  
C48      C      0.565500000000     0.556140000000     0.179660000000    -0.0956494  
C49      C      0.440040000000     0.667790000000     0.525270000000     0.073392   
C50      C      0.405310000000     0.704840000000     0.525340000000    -0.0932831  
C51      C      0.353460000000     0.692140000000     0.526680000000     0.0483073  
C52      C      0.338010000000     0.641650000000     0.527650000000    -0.0933799  
C53      C      0.373690000000     0.605540000000     0.527070000000     0.0733389  
C54      C      0.315750000000     0.731160000000     0.527030000000    -0.00694357 
C55      C      0.321170000000     0.772640000000     0.504950000000    -0.0355857  
C56      C      0.285440000000     0.808780000000     0.504950000000    -0.0360134  
C57      C      0.243600000000     0.804870000000     0.527380000000    -0.00621342 
C58      C      0.238450000000     0.763630000000     0.549690000000    -0.0359831  
C59      C      0.273800000000     0.727160000000     0.549360000000    -0.0356292  
C60      C      0.205380000000     0.843410000000     0.527390000000     0.0468788  
C61      C      0.187720000000     0.862830000000     0.496210000000    -0.0911097  
C62      C      0.151180000000     0.898120000000     0.496660000000     0.0697635  
C63      C      0.149810000000     0.896810000000     0.558110000000     0.0697923  
C64      C      0.185820000000     0.860990000000     0.558570000000    -0.0910577  
C65      C      0.652800000000     0.597950000000     0.508950000000     0.0744517  
C66      C      0.692850000000     0.633010000000     0.512310000000    -0.0923584  
C67      C      0.692880000000     0.667430000000     0.539620000000     0.0487998  
C68      C      0.652170000000     0.665870000000     0.562820000000    -0.0923362  
C69      C      0.612480000000     0.630820000000     0.558070000000     0.0741331  
C70      C      0.734350000000     0.705770000000     0.543140000000    -0.0072524  
C71      C      0.783980000000     0.694940000000     0.535020000000    -0.0357338  
C72      C      0.822320000000     0.732230000000     0.535550000000    -0.0357299  
C73      C      0.811680000000     0.780440000000     0.544960000000    -0.00867435 
C74      C      0.762820000000     0.791090000000     0.554480000000    -0.0354553  
C75      C      0.724260000000     0.754110000000     0.553290000000    -0.0355033  
C76      C      0.850660000000     0.820540000000     0.542440000000     0.0530105  
C77      C      0.872000000000     0.832530000000     0.510220000000    -0.0969875  
C78      C      0.906600000000     0.872870000000     0.507560000000     0.0753496  
C79      C      0.900360000000     0.887930000000     0.568210000000     0.0753057  
C80      C      0.864780000000     0.848460000000     0.571650000000    -0.0972423  
C81      C      0.891540000000     0.126590000000     0.496680000000     0.0696893  
C82      C      0.855070000000     0.161970000000     0.496040000000    -0.0907303  
C83      C      0.840860000000     0.185250000000     0.526800000000     0.0466709  
C84      C      0.863980000000     0.171410000000     0.557790000000    -0.0907958  
C85      C      0.900090000000     0.135690000000     0.557550000000     0.0696827  
C86      C      0.802580000000     0.223870000000     0.526530000000    -0.00600078 
C87      C      0.808620000000     0.266310000000     0.547690000000    -0.0359099  
C88      C      0.773150000000     0.302660000000     0.547250000000    -0.0355026  
C89      C      0.730280000000     0.297670000000     0.525790000000    -0.00673769 
C90      C      0.724070000000     0.255100000000     0.504770000000    -0.0355015  
C91      C      0.759730000000     0.218880000000     0.505040000000    -0.0359223  
C92      C      0.692460000000     0.336720000000     0.525270000000     0.0481627  
C93      C      0.707760000000     0.387240000000     0.526960000000    -0.0931846  
C94      C      0.672040000000     0.423310000000     0.526530000000     0.0735293  
C95      C      0.605840000000     0.361100000000     0.522980000000     0.0734181  
C96      C      0.640610000000     0.324070000000     0.523150000000    -0.0929363  
C97      C      0.135760000000     0.150080000000     0.487150000000     0.0747537  
C98      C      0.169440000000     0.191250000000     0.484250000000    -0.0956938  
C99      C      0.193740000000     0.210530000000     0.513940000000     0.0520113  
C100     C      0.183630000000     0.187850000000     0.546040000000    -0.0960173  
C101     C      0.149300000000     0.147300000000     0.548070000000     0.0753367  
C102     C      0.230770000000     0.253140000000     0.511610000000    -0.00826385 
C103     C      0.265220000000     0.256960000000     0.483920000000    -0.0348826  
C104     C      0.303370000000     0.294510000000     0.483700000000    -0.0363023  
C105     C      0.307740000000     0.328030000000     0.511360000000    -0.00791601 
C106     C      0.272550000000     0.325560000000     0.538350000000    -0.0363796  
C107     C      0.233920000000     0.288660000000     0.538300000000    -0.0351505  
C108     C      0.350870000000     0.363680000000     0.513350000000     0.0498657  
C109     C      0.355940000000     0.402870000000     0.489750000000    -0.0939637  
C110     C      0.396710000000     0.437140000000     0.493050000000     0.0743672  
C111     C      0.427590000000     0.393260000000     0.541290000000     0.0742043  
C112     C      0.386940000000     0.358710000000     0.539330000000    -0.0935903  
C113     C      0.371510000000     0.600620000000     0.021640000000     0.0737475  
C114     C      0.335160000000     0.636100000000     0.021220000000    -0.0935223  
C115     C      0.349630000000     0.686680000000     0.024040000000     0.0485426  
C116     C      0.401170000000     0.700150000000     0.026950000000    -0.093557   
C117     C      0.436590000000     0.663780000000     0.026780000000     0.0738526  
C118     C      0.311290000000     0.725070000000     0.023980000000    -0.00703101 
C119     C      0.314900000000     0.765050000000     0.047450000000    -0.0355297  
C120     C      0.278820000000     0.800830000000     0.047560000000    -0.0360515  
C121     C      0.238470000000     0.798090000000     0.023870000000    -0.00616097 
C122     C      0.235060000000     0.758310000000     0.000220000000    -0.0361136  
C123     C      0.270740000000     0.722150000000     0.000440000000    -0.0355491  
C124     C      0.200130000000     0.836490000000     0.023840000000     0.046837   
C125     C      0.180330000000     0.853830000000     0.055010000000    -0.0911372  
C126     C      0.144220000000     0.889540000000     0.054530000000     0.069839   
C127     C      0.147260000000     0.892470000000     0.993130000000     0.0698287  
C128     C      0.182880000000     0.856280000000     0.992660000000    -0.0910793  
C129     C      0.612220000000     0.638970000000     0.040110000000     0.0738795  
C130     C      0.647920000000     0.678130000000     0.035960000000    -0.0919602  
C131     C      0.682350000000     0.677360000000     0.008350000000     0.0486652  
C132     C      0.680610000000     0.636390000000     0.985940000000    -0.0924382  
C133     C      0.644770000000     0.597640000000     0.991410000000     0.0745218  
C134     C      0.720450000000     0.718700000000     0.003570000000    -0.00727562 
C135     C      0.708340000000     0.767580000000     0.010590000000    -0.035679   
C136     C      0.745480000000     0.805960000000     0.009620000000    -0.0357205  
C137     C      0.794880000000     0.796150000000     0.000850000000    -0.00871958 
C138     C      0.806730000000     0.748080000000     0.991990000000    -0.0354338  
C139     C      0.769810000000     0.709440000000     0.993580000000    -0.0355335  
C140     C      0.834920000000     0.835110000000     0.004240000000     0.0528247  
C141     C      0.845980000000     0.855170000000     0.036900000000    -0.0969112  
C142     C      0.885380000000     0.890830000000     0.040410000000     0.0752687  
C143     C      0.901590000000     0.887880000000     0.979740000000     0.0749671  
C144     C      0.863070000000     0.851270000000     0.975440000000    -0.096882   
C145     C      0.897740000000     0.131320000000     0.054640000000     0.0698393  
C146     C      0.861760000000     0.167130000000     0.055210000000    -0.0909219  
C147     C      0.847060000000     0.189710000000     0.024300000000     0.0466649  
C148     C      0.869520000000     0.175010000000     0.993280000000    -0.0908115  
C149     C      0.905240000000     0.138910000000     0.993620000000     0.0697898  
C150     C      0.808680000000     0.228210000000     0.024440000000    -0.00598899 
C151     C      0.766430000000     0.223670000000     0.046500000000    -0.0359165  
C152     C      0.730520000000     0.259600000000     0.046600000000    -0.035444   
C153     C      0.735780000000     0.301380000000     0.024770000000    -0.00674506 
C154     C      0.778080000000     0.305980000000     0.002760000000    -0.0354852  
C155     C      0.813870000000     0.269930000000     0.002540000000    -0.0359643  
C156     C      0.697390000000     0.339880000000     0.024930000000     0.0482587  
C157     C      0.645810000000     0.326520000000     0.028100000000    -0.0931491  
C158     C      0.610430000000     0.362910000000     0.028100000000     0.0735472  
C159     C      0.675440000000     0.425960000000     0.022160000000     0.0735723  
C160     C      0.711790000000     0.390490000000     0.021910000000    -0.0932002  
C161     C      0.437870000000     0.394640000000     0.058810000000     0.0742544  
C162     C      0.399300000000     0.358440000000     0.064030000000    -0.0924271  
C163     C      0.358160000000     0.355480000000     0.041200000000     0.0487186  
C164     C      0.356820000000     0.389380000000     0.013620000000    -0.0922191  
C165     C      0.395800000000     0.425470000000     0.009730000000     0.0741299  
C166     C      0.317480000000     0.316420000000     0.045400000000    -0.00728776 
C167     C      0.328650000000     0.268300000000     0.055420000000    -0.0355279  
C168     C      0.290800000000     0.230510000000     0.056550000000    -0.0355938  
C169     C      0.241630000000     0.240260000000     0.047180000000    -0.00869324 
C170     C      0.229870000000     0.288350000000     0.038300000000    -0.035774   
C171     C      0.267450000000     0.326350000000     0.037780000000    -0.0357626  
C172     C      0.203530000000     0.199490000000     0.043610000000     0.0528388  
C173     C      0.187520000000     0.171530000000     0.072390000000    -0.096978   
C174     C      0.151120000000     0.132880000000     0.068030000000     0.0747926  
C175     C      0.148430000000     0.148420000000     0.007300000000     0.0752193  
C176     C      0.183850000000     0.187890000000     0.010860000000    -0.097107   
Cu1      Cu     0.027360000000     0.016760000000     0.992050000000     0.844516   
Cu2      Cu     0.019860000000     0.009340000000     0.055740000000     0.844792   
Cu3      Cu     0.020560000000     0.011440000000     0.495430000000     0.843485   
Cu4      Cu     0.025820000000     0.017180000000     0.559280000000     0.846508   
Cu5      Cu     0.561330000000     0.550120000000     0.022790000000     1.17795    
Cu6      Cu     0.485660000000     0.476600000000     0.027120000000     1.17771    
Cu7      Cu     0.561470000000     0.550250000000     0.527060000000     1.17748    
Cu8      Cu     0.484150000000     0.478550000000     0.522850000000     1.17662    
H1       H      0.458920000000     0.446850000000     0.920970000000     0.0237552  
H2       H      0.457190000000     0.442100000000     0.857920000000     0.052663   
H3       H      0.573270000000     0.560270000000     0.853260000000     0.0527657  
H4       H      0.574580000000     0.563720000000     0.916000000000     0.0233032  
H5       H      0.433870000000     0.490920000000     0.806710000000     0.0370822  
H6       H      0.433920000000     0.491230000000     0.743250000000     0.0370587  
H7       H      0.596430000000     0.504710000000     0.743460000000     0.0371999  
H8       H      0.596320000000     0.504690000000     0.806690000000     0.037142   
H9       H      0.455660000000     0.444140000000     0.691910000000     0.0524129  
H10      H      0.457260000000     0.449310000000     0.628930000000     0.0234165  
H11      H      0.576530000000     0.562590000000     0.633990000000     0.0232629  
H12      H      0.575180000000     0.559010000000     0.696700000000     0.0525956  
H13      H      0.469280000000     0.465770000000     0.415910000000     0.0232553  
H14      H      0.470790000000     0.469220000000     0.353160000000     0.0525388  
H15      H      0.591510000000     0.582820000000     0.357940000000     0.0526532  
H16      H      0.589560000000     0.578000000000     0.420960000000     0.0237272  
H17      H      0.450270000000     0.525470000000     0.306540000000     0.037137   
H18      H      0.450330000000     0.525650000000     0.243300000000     0.037253   
H19      H      0.612870000000     0.533520000000     0.243280000000     0.0373079  
H20      H      0.612780000000     0.533520000000     0.306730000000     0.0372325  
H21      H      0.469990000000     0.470350000000     0.196580000000     0.0525599  
H22      H      0.468670000000     0.466860000000     0.133870000000     0.0233628  
H23      H      0.591030000000     0.576870000000     0.128950000000     0.0237956  
H24      H      0.592720000000     0.581870000000     0.191960000000     0.0525725  
H25      H      0.479680000000     0.679540000000     0.524430000000     0.024938   
H26      H      0.419150000000     0.743320000000     0.524870000000     0.0523356  
H27      H      0.298400000000     0.629910000000     0.528350000000     0.0522164  
H28      H      0.359740000000     0.567050000000     0.527660000000     0.0247979  
H29      H      0.352720000000     0.776840000000     0.487220000000     0.0375441  
H30      H      0.290900000000     0.840140000000     0.487590000000     0.0376764  
H31      H      0.206580000000     0.759100000000     0.567130000000     0.0375698  
H32      H      0.268530000000     0.696000000000     0.566920000000     0.0374229  
H33      H      0.201340000000     0.850170000000     0.471450000000     0.0518799  
H34      H      0.138450000000     0.911580000000     0.471840000000     0.0256068  
H35      H      0.135970000000     0.909180000000     0.582920000000     0.0256299  
H36      H      0.198630000000     0.847540000000     0.583340000000     0.0518939  
H37      H      0.652840000000     0.571000000000     0.488200000000     0.0148196  
H38      H      0.722980000000     0.633510000000     0.493410000000     0.0509874  
H39      H      0.650990000000     0.691260000000     0.584510000000     0.0508847  
H40      H      0.580790000000     0.629870000000     0.575670000000     0.0152568  
H41      H      0.793140000000     0.657850000000     0.527860000000     0.036731   
H42      H      0.860140000000     0.723650000000     0.528280000000     0.0381094  
H43      H      0.754160000000     0.828440000000     0.561450000000     0.0385292  
H44      H      0.686360000000     0.763910000000     0.559130000000     0.0369987  
H45      H      0.861140000000     0.811530000000     0.487160000000     0.0542498  
H46      H      0.922190000000     0.881450000000     0.482090000000     0.0247498  
H47      H      0.910600000000     0.908940000000     0.591400000000     0.0247771  
H48      H      0.848430000000     0.839800000000     0.596860000000     0.0540696  
H49      H      0.901440000000     0.110080000000     0.472150000000     0.0256822  
H50      H      0.838830000000     0.171620000000     0.471350000000     0.051675   
H51      H      0.853920000000     0.187690000000     0.582330000000     0.0516202  
H52      H      0.916760000000     0.126400000000     0.582210000000     0.0256242  
H53      H      0.841240000000     0.271890000000     0.564340000000     0.0374213  
H54      H      0.779140000000     0.334530000000     0.564090000000     0.0372431  
H55      H      0.691910000000     0.250000000000     0.487650000000     0.0372781  
H56      H      0.753370000000     0.186620000000     0.488610000000     0.0373909  
H57      H      0.747300000000     0.399100000000     0.528150000000     0.0519907  
H58      H      0.685940000000     0.461780000000     0.527780000000     0.024649   
H59      H      0.566240000000     0.349340000000     0.521520000000     0.0248383  
H60      H      0.626720000000     0.285630000000     0.522170000000     0.0521144  
H61      H      0.117440000000     0.136280000000     0.463620000000     0.0246551  
H62      H      0.175970000000     0.208050000000     0.458980000000     0.0525642  
H63      H      0.202640000000     0.200790000000     0.569510000000     0.0527241  
H64      H      0.142550000000     0.130870000000     0.573470000000     0.0246475  
H65      H      0.264040000000     0.229850000000     0.463190000000     0.036964   
H66      H      0.330650000000     0.296160000000     0.462790000000     0.038271   
H67      H      0.275500000000     0.351700000000     0.559690000000     0.0382533  
H68      H      0.207180000000     0.287340000000     0.559520000000     0.0368982  
H69      H      0.328260000000     0.407350000000     0.469550000000     0.052472   
H70      H      0.400430000000     0.468360000000     0.475510000000     0.0150359  
H71      H      0.455870000000     0.389710000000     0.561140000000     0.015218   
H72      H      0.383690000000     0.328380000000     0.557750000000     0.0527288  
H73      H      0.358370000000     0.562000000000     0.019590000000     0.0243343  
H74      H      0.295790000000     0.623790000000     0.019230000000     0.0521621  
H75      H      0.414270000000     0.738750000000     0.028870000000     0.0522823  
H76      H      0.475970000000     0.676160000000     0.028930000000     0.0242925  
H77      H      0.345340000000     0.768360000000     0.066120000000     0.0373866  
H78      H      0.282930000000     0.831070000000     0.065970000000     0.0376149  
H79      H      0.204350000000     0.754740000000     0.981770000000     0.0375596  
H80      H      0.266900000000     0.692150000000     0.981810000000     0.0373433  
H81      H      0.192100000000     0.839380000000     0.079750000000     0.0518875  
H82      H      0.129930000000     0.901480000000     0.079330000000     0.0255874  
H83      H      0.135380000000     0.906750000000     0.968340000000     0.0255599  
H84      H      0.197360000000     0.844430000000     0.967930000000     0.0519136  
H85      H      0.585010000000     0.639870000000     0.060920000000     0.0149605  
H86      H      0.648680000000     0.708460000000     0.054350000000     0.0508947  
H87      H      0.706160000000     0.634520000000     0.964160000000     0.0507429  
H88      H      0.643220000000     0.566010000000     0.974170000000     0.014612   
H89      H      0.670390000000     0.776070000000     0.017490000000     0.0369097  
H90      H      0.735960000000     0.843140000000     0.016370000000     0.0383418  
H91      H      0.845000000000     0.740100000000     0.985480000000     0.0383879  
H92      H      0.780480000000     0.672170000000     0.988400000000     0.0368424  
H93      H      0.824770000000     0.842780000000     0.059650000000     0.0542793  
H94      H      0.893080000000     0.905470000000     0.066210000000     0.0247631  
H95      H      0.922730000000     0.899890000000     0.956860000000     0.0247535  
H96      H      0.855130000000     0.835940000000     0.949880000000     0.0540173  
H97      H      0.907870000000     0.115230000000     0.079270000000     0.0256083  
H98      H      0.846120000000     0.177530000000     0.079930000000     0.0516233  
H99      H      0.859110000000     0.190760000000     0.968640000000     0.0515965  
H100     H      0.921260000000     0.128790000000     0.968920000000     0.0255791  
H101     H      0.760690000000     0.191940000000     0.063500000000     0.0372566  
H102     H      0.698850000000     0.254840000000     0.064180000000     0.0370609  
H103     H      0.783340000000     0.337250000000     0.985300000000     0.0370819  
H104     H      0.846020000000     0.275140000000     0.985420000000     0.0372886  
H105     H      0.632570000000     0.287970000000     0.030070000000     0.0520181  
H106     H      0.571070000000     0.350570000000     0.030470000000     0.024674   
H107     H      0.688600000000     0.464540000000     0.019860000000     0.0246789  
H108     H      0.751110000000     0.402900000000     0.019850000000     0.0519958  
H109     H      0.469780000000     0.396880000000     0.076240000000     0.0146581  
H110     H      0.401560000000     0.333400000000     0.085840000000     0.0507807  
H111     H      0.326350000000     0.387750000000     0.994950000000     0.0508883  
H112     H      0.394640000000     0.452050000000     0.988810000000     0.0148601  
H113     H      0.366880000000     0.259290000000     0.061020000000     0.0368382  
H114     H      0.300290000000     0.193280000000     0.063160000000     0.0383212  
H115     H      0.191810000000     0.296240000000     0.031170000000     0.0382467  
H116     H      0.257450000000     0.363260000000     0.030810000000     0.0367643  
H117     H      0.202590000000     0.179870000000     0.098010000000     0.0539298  
H118     H      0.139040000000     0.112040000000     0.090920000000     0.0245798  
H119     H      0.133940000000     0.140450000000     0.981440000000     0.024678   
H120     H      0.196200000000     0.208910000000     0.988120000000     0.05424    
N1       N      0.516970000000     0.505460000000     0.923190000000    -0.207698   
N2       N      0.517090000000     0.506160000000     0.626750000000    -0.207913   
N3       N      0.529190000000     0.521710000000     0.423150000000    -0.207783   
N4       N      0.529660000000     0.521680000000     0.126700000000    -0.207793   
N5       N      0.424440000000     0.618400000000     0.526010000000    -0.203434   
N6       N      0.132210000000     0.915080000000     0.527380000000    -0.190538   
N7       N      0.613690000000     0.597700000000     0.531590000000    -0.264932   
N8       N      0.920670000000     0.900270000000     0.536350000000    -0.197159   
N9       N      0.914130000000     0.113540000000     0.527190000000    -0.190489   
N10      N      0.621340000000     0.410470000000     0.524660000000    -0.203108   
N11      N      0.125570000000     0.128570000000     0.518870000000    -0.197089   
N12      N      0.431390000000     0.431670000000     0.518510000000    -0.264916   
N13      N      0.421970000000     0.614270000000     0.024290000000    -0.203549   
N14      N      0.127820000000     0.908970000000     0.023830000000    -0.190615   
N15      N      0.611280000000     0.599920000000     0.017920000000    -0.264684   
N16      N      0.912790000000     0.907210000000     0.012020000000    -0.196857   
N17      N      0.919410000000     0.117150000000     0.024080000000    -0.190629   
N18      N      0.625020000000     0.412380000000     0.025170000000    -0.203333   
N19      N      0.435220000000     0.427320000000     0.032160000000    -0.264667   
N20      N      0.131830000000     0.121470000000     0.035710000000    -0.196884   
O1       O      0.079610000000     0.964420000000     0.995130000000    -0.391488   
O2       O      0.974260000000     0.068280000000     0.995180000000    -0.3913     
O3       O      0.081400000000     0.070610000000     0.001190000000    -0.404363   
O4       O      0.972400000000     0.962350000000     0.989040000000    -0.403326   
O5       O      0.964520000000     0.956760000000     0.046580000000    -0.403708   
O6       O      0.075750000000     0.062850000000     0.058730000000    -0.403742   
O7       O      0.968250000000     0.062260000000     0.052750000000    -0.39172    
O8       O      0.072310000000     0.957250000000     0.052570000000    -0.391787   
O9       O      0.077070000000     0.963560000000     0.498450000000    -0.391437   
O10      O      0.964610000000     0.059990000000     0.498590000000    -0.391131   
O11      O      0.071910000000     0.069320000000     0.494050000000    -0.403669   
O12      O      0.969790000000     0.954100000000     0.503060000000    -0.403626   
O13      O      0.972490000000     0.961250000000     0.560720000000    -0.40462    
O14      O      0.078590000000     0.072570000000     0.551730000000    -0.405477   
O15      O      0.971090000000     0.067010000000     0.556070000000    -0.391513   
O16      O      0.079960000000     0.966680000000     0.556230000000    -0.391452   
O17      O      0.548360000000     0.539220000000     0.973840000000    -0.482265   
O18      O      0.559290000000     0.545930000000     0.072960000000    -0.477239   
O19      O      0.603490000000     0.493560000000     0.023050000000    -0.468481   
O20      O      0.504090000000     0.591930000000     0.024850000000    -0.468996   
O21      O      0.443460000000     0.533030000000     0.024300000000    -0.468146   
O22      O      0.542960000000     0.434790000000     0.027260000000    -0.469074   
O23      O      0.495820000000     0.490380000000     0.076030000000    -0.48264    
O24      O      0.490190000000     0.478250000000     0.976960000000    -0.476809   
O25      O      0.557200000000     0.547700000000     0.476890000000    -0.477661   
O26      O      0.550140000000     0.538310000000     0.576080000000    -0.482296   
O27      O      0.601570000000     0.492180000000     0.525690000000    -0.468645   
O28      O      0.506010000000     0.594290000000     0.526440000000    -0.468162   
O29      O      0.444180000000     0.536700000000     0.524550000000    -0.469774   
O30      O      0.539720000000     0.434520000000     0.523580000000    -0.466368   
O31      O      0.488160000000     0.481170000000     0.573020000000    -0.477628   
O32      O      0.496390000000     0.489290000000     0.473810000000    -0.482312   


