data_structure

_audit_creation_method RASPA-1.0
_audit_creation_date 2023-6-4
_audit_author_name 'Poobodin Mano'

_cell_length_a    26.4791
_cell_length_b    27.1812
_cell_length_c    38.5613
_cell_angle_alpha 89.9988
_cell_angle_beta  89.9988
_cell_angle_gamma 93.6586
_cell_volume      27697.3

_symmetry_cell_setting          triclinic
_symmetry_space_group_name_Hall 'P 1'
_symmetry_space_group_name_H-M  'P 1'
_symmetry_Int_Tables_number     1

_symmetry_equiv_pos_as_xyz 'x,y,z'

loop_
_atom_site_label
_atom_site_type_symbol
_atom_site_fract_x
_atom_site_fract_y
_atom_site_fract_z
_atom_site_charge
C1       C      0.066370000000     0.934760000000     0.004670000000     0.399185   
C2       C      0.919560000000     0.062770000000     0.003340000000     0.39905    
C3       C      0.061950000000     0.073470000000     0.996380000000     0.413194   
C4       C      0.925640000000     0.923860000000     0.012120000000     0.412673   
C5       C      0.080710000000     0.911110000000     0.500190000000     0.399571   
C6       C      0.934270000000     0.039420000000     0.501860000000     0.399375   
C7       C      0.075070000000     0.050540000000     0.492820000000     0.412457   
C8       C      0.939650000000     0.900370000000     0.509220000000     0.413325   
C9       C      0.497470000000     0.506130000000     0.933580000000     0.473076   
C10      C      0.495070000000     0.500230000000     0.066560000000     0.467393   
C11      C      0.559900000000     0.433290000000     0.998860000000     0.465246   
C12      C      0.433650000000     0.570720000000     0.000820000000     0.463136   
C13      C      0.505320000000     0.473340000000     0.433390000000     0.466102   
C14      C      0.503070000000     0.474120000000     0.566220000000     0.474177   
C15      C      0.566720000000     0.402970000000     0.501280000000     0.463672   
C16      C      0.445610000000     0.544790000000     0.499320000000     0.464093   
C17      C      0.525500000000     0.536300000000     0.841110000000    -0.1056     
C18      C      0.468880000000     0.445840000000     0.620440000000     0.0766808  
C19      C      0.535350000000     0.508470000000     0.619140000000     0.076734   
C20      C      0.467700000000     0.447740000000     0.656680000000    -0.0952861  
C21      C      0.453960000000     0.479050000000     0.731520000000    -0.0354705  
C22      C      0.453150000000     0.483030000000     0.767670000000    -0.034534   
C23      C      0.499980000000     0.484190000000     0.713200000000    -0.00698613 
C24      C      0.534920000000     0.511600000000     0.655260000000    -0.0955144  
C25      C      0.498270000000     0.492660000000     0.786350000000    -0.00931999 
C26      C      0.468400000000     0.464450000000     0.845060000000    -0.0983599  
C27      C      0.544260000000     0.497580000000     0.768160000000    -0.034645   
C28      C      0.468820000000     0.469140000000     0.881060000000     0.0755987  
C29      C      0.524800000000     0.541000000000     0.877420000000     0.105046   
C30      C      0.545150000000     0.493160000000     0.732060000000    -0.0354395  
C31      C      0.500900000000     0.481020000000     0.674610000000     0.0508432  
C32      C      0.497470000000     0.497750000000     0.824690000000     0.0559101  
C33      C      0.452060000000     0.489690000000     0.157490000000    -0.106186   
C34      C      0.548940000000     0.486460000000     0.380090000000     0.0763962  
C35      C      0.459570000000     0.473940000000     0.380040000000     0.0735423  
C36      C      0.549420000000     0.489590000000     0.343900000000    -0.0957527  
C37      C      0.538060000000     0.461670000000     0.267210000000    -0.0361097  
C38      C      0.536530000000     0.462760000000     0.230950000000    -0.0345423  
C39      C      0.503410000000     0.487070000000     0.286880000000    -0.00724273 
C40      C      0.458560000000     0.477370000000     0.343940000000    -0.0959046  
C41      C      0.500510000000     0.489560000000     0.213540000000    -0.00936667 
C42      C      0.542950000000     0.493630000000     0.155220000000    -0.0980652  
C43      C      0.466340000000     0.515520000000     0.233330000000    -0.0346417  
C44      C      0.540370000000     0.496400000000     0.119160000000     0.0741585  
C45      C      0.450400000000     0.493050000000     0.121180000000     0.108019   
C46      C      0.467650000000     0.514130000000     0.269540000000    -0.036082   
C47      C      0.503870000000     0.484600000000     0.325360000000     0.0503353  
C48      C      0.498530000000     0.490720000000     0.174930000000     0.0551966  
C49      C      0.391670000000     0.668820000000     0.500740000000    -0.102884   
C50      C      0.140240000000     0.863760000000     0.530140000000     0.0703836  
C51      C      0.130540000000     0.854970000000     0.469420000000     0.0701751  
C52      C      0.176560000000     0.828340000000     0.530400000000    -0.0906984  
C53      C      0.271760000000     0.771680000000     0.520700000000    -0.0360861  
C54      C      0.307620000000     0.735800000000     0.520550000000    -0.0345627  
C55      C      0.228540000000     0.766860000000     0.499370000000    -0.00562567 
C56      C      0.166560000000     0.819270000000     0.468790000000    -0.090853   
C57      C      0.301350000000     0.693830000000     0.499180000000    -0.00853284 
C58      C      0.325090000000     0.605280000000     0.497270000000    -0.0954359  
C59      C      0.258040000000     0.688900000000     0.477950000000    -0.0345947  
C60      C      0.361370000000     0.569970000000     0.497470000000     0.0719158  
C61      C      0.427820000000     0.632790000000     0.500820000000     0.101963   
C62      C      0.222280000000     0.724890000000     0.477970000000    -0.0362258  
C63      C      0.190180000000     0.805270000000     0.499520000000     0.0469689  
C64      C      0.339800000000     0.655490000000     0.499020000000     0.0528729  
C65      C      0.860880000000     0.794660000000     0.544380000000    -0.106872   
C66      C      0.602850000000     0.590540000000     0.478030000000     0.0750433  
C67      C      0.636110000000     0.549230000000     0.526370000000     0.0744444  
C68      C      0.640790000000     0.628030000000     0.480700000000    -0.0913606  
C69      C      0.701710000000     0.716440000000     0.507360000000    -0.0360659  
C70      C      0.738310000000     0.755230000000     0.509840000000    -0.0341973  
C71      C      0.714920000000     0.667660000000     0.512150000000    -0.00646768 
C72      C      0.674470000000     0.586180000000     0.530210000000    -0.0920905  
C73      C      0.788460000000     0.745890000000     0.517610000000    -0.0104625  
C74      C      0.833170000000     0.815370000000     0.487110000000    -0.099582   
C75      C      0.801500000000     0.697500000000     0.523790000000    -0.0342121  
C76      C      0.871450000000     0.852420000000     0.485560000000     0.0757888  
C77      C      0.899070000000     0.832670000000     0.542510000000     0.105484   
C78      C      0.764970000000     0.658530000000     0.520910000000    -0.0361477  
C79      C      0.676520000000     0.626560000000     0.507510000000     0.0489089  
C80      C      0.827750000000     0.786260000000     0.516650000000     0.0580734  
C81      C      0.620850000000     0.279050000000     0.500440000000    -0.10283    
C82      C      0.874850000000     0.086810000000     0.471860000000     0.0701081  
C83      C      0.883260000000     0.094410000000     0.532740000000     0.0701226  
C84      C      0.838070000000     0.121750000000     0.471620000000    -0.0910104  
C85      C      0.741850000000     0.176930000000     0.481110000000    -0.0361327  
C86      C      0.705650000000     0.212490000000     0.481150000000    -0.0346229  
C87      C      0.784720000000     0.181920000000     0.502760000000    -0.00567873 
C88      C      0.846770000000     0.129660000000     0.533400000000    -0.0907837  
C89      C      0.711260000000     0.254300000000     0.502720000000    -0.00854159 
C90      C      0.687280000000     0.342720000000     0.504310000000    -0.0956723  
C91      C      0.754160000000     0.259340000000     0.524330000000    -0.0345413  
C92      C      0.650960000000     0.377950000000     0.503730000000     0.0723245  
C93      C      0.584650000000     0.315030000000     0.499980000000     0.101601   
C94      C      0.790240000000     0.223660000000     0.524420000000    -0.0361697  
C95      C      0.823550000000     0.143990000000     0.502610000000     0.0469207  
C96      C      0.672680000000     0.292490000000     0.502570000000     0.0528943  
C97      C      0.361470000000     0.342720000000     0.458290000000    -0.0858054  
C98      C      0.124300000000     0.117590000000     0.517320000000     0.0753337  
C99      C      0.123420000000     0.105860000000     0.456250000000     0.0748386  
C100     C      0.156210000000     0.159800000000     0.513750000000    -0.0963143  
C101     C      0.199960000000     0.261870000000     0.494420000000    -0.0353519  
C102     C      0.237710000000     0.299840000000     0.495540000000    -0.0363286  
C103     C      0.208570000000     0.217750000000     0.477220000000    -0.00835121 
C104     C      0.156010000000     0.147620000000     0.451790000000    -0.0962918  
C105     C      0.284760000000     0.293900000000     0.479800000000    -0.00621127 
C106     C      0.335440000000     0.352250000000     0.518130000000    -0.0932494  
C107     C      0.292220000000     0.250670000000     0.461000000000    -0.0358464  
C108     C      0.377380000000     0.384860000000     0.523440000000     0.0785653  
C109     C      0.403450000000     0.374510000000     0.465150000000     0.0594086  
C110     C      0.254240000000     0.212920000000     0.459590000000    -0.0349229  
C111     C      0.172330000000     0.175000000000     0.480760000000     0.0525743  
C112     C      0.327240000000     0.330770000000     0.485240000000     0.0465834  
C113     C      0.376430000000     0.692980000000     0.004870000000    -0.102626   
C114     C      0.124760000000     0.886930000000     0.035470000000     0.0700005  
C115     C      0.116400000000     0.878120000000     0.974660000000     0.070482   
C116     C      0.160630000000     0.851020000000     0.036160000000    -0.0905865  
C117     C      0.255670000000     0.793490000000     0.026980000000    -0.0360454  
C118     C      0.291660000000     0.757740000000     0.026560000000    -0.03455    
C119     C      0.212530000000     0.788870000000     0.005580000000    -0.00564863 
C120     C      0.151900000000     0.841960000000     0.974460000000    -0.0907376  
C121     C      0.285580000000     0.716060000000     0.004870000000    -0.00846117 
C122     C      0.311240000000     0.628040000000     0.001780000000    -0.0950029  
C123     C      0.242120000000     0.711090000000     0.983810000000    -0.0343567  
C124     C      0.348470000000     0.593620000000     0.000990000000     0.0722661  
C125     C      0.413480000000     0.657920000000     0.003950000000     0.101829   
C126     C      0.206250000000     0.746990000000     0.984080000000    -0.035976   
C127     C      0.174580000000     0.827670000000     0.005440000000     0.046904   
C128     C      0.324800000000     0.678500000000     0.003840000000     0.0529416  
C129     C      0.637960000000     0.632530000000     0.045190000000    -0.0853205  
C130     C      0.876680000000     0.856500000000     0.987750000000     0.0754042  
C131     C      0.877070000000     0.868900000000     0.048760000000     0.0750064  
C132     C      0.844860000000     0.814240000000     0.991480000000    -0.0960876  
C133     C      0.801330000000     0.712280000000     0.011500000000    -0.0352538  
C134     C      0.763520000000     0.674380000000     0.010240000000    -0.0362649  
C135     C      0.792380000000     0.756660000000     0.028220000000    -0.00829203 
C136     C      0.844570000000     0.827140000000     0.053360000000    -0.0964502  
C137     C      0.716090000000     0.680720000000     0.025300000000    -0.00586948 
C138     C      0.666270000000     0.623560000000     0.985800000000    -0.0921607  
C139     C      0.708370000000     0.724090000000     0.043860000000    -0.0357923  
C140     C      0.624150000000     0.591660000000     0.979480000000     0.080656   
C141     C      0.595820000000     0.601430000000     0.037310000000     0.0599098  
C142     C      0.746410000000     0.761760000000     0.045430000000    -0.0347774  
C143     C      0.828560000000     0.799390000000     0.024510000000     0.0526372  
C144     C      0.673380000000     0.644460000000     0.018950000000     0.0469673  
C145     C      0.680150000000     0.368810000000     0.993210000000    -0.103336   
C146     C      0.862260000000     0.110680000000     0.971790000000     0.0703743  
C147     C      0.865110000000     0.115970000000     0.033010000000     0.0697397  
C148     C      0.825470000000     0.145580000000     0.970580000000    -0.0907554  
C149     C      0.730220000000     0.205130000000     0.024850000000    -0.0361005  
C150     C      0.695000000000     0.241700000000     0.024080000000    -0.0348143  
C151     C      0.769620000000     0.204840000000     0.000290000000    -0.00581636 
C152     C      0.828030000000     0.150690000000     0.032740000000    -0.0907478  
C153     C      0.698530000000     0.279390000000     0.998970000000    -0.00842616 
C154     C      0.610600000000     0.310310000000     0.004140000000    -0.0951629  
C155     C      0.737710000000     0.278850000000     0.974300000000    -0.03472    
C156     C      0.577750000000     0.348840000000     0.003440000000     0.0718495  
C157     C      0.646730000000     0.407160000000     0.992760000000     0.102303   
C158     C      0.772570000000     0.242110000000     0.974880000000    -0.0359433  
C159     C      0.807860000000     0.166370000000     0.001250000000     0.0468525  
C160     C      0.662540000000     0.319890000000     0.998900000000     0.0529669  
C161     C      0.162380000000     0.161820000000     0.963030000000    -0.105414   
C162     C      0.363900000000     0.423270000000     0.018850000000     0.0744906  
C163     C      0.404690000000     0.383520000000     0.972770000000     0.0740744  
C164     C      0.323310000000     0.388290000000     0.017580000000    -0.0924732  
C165     C      0.269770000000     0.285630000000     0.022840000000    -0.0365822  
C166     C      0.232120000000     0.247620000000     0.022280000000    -0.0337096  
C167     C      0.282500000000     0.311670000000     0.992430000000    -0.00655275 
C168     C      0.364510000000     0.348190000000     0.970220000000    -0.0926016  
C169     C      0.205950000000     0.235580000000     0.991390000000    -0.00979266 
C170     C      0.134780000000     0.186460000000     0.019450000000    -0.0985025  
C171     C      0.218410000000     0.262260000000     0.961020000000    -0.0339379  
C172     C      0.100830000000     0.145580000000     0.020200000000     0.075569   
C173     C      0.127220000000     0.121050000000     0.964020000000     0.105148   
C174     C      0.256770000000     0.299830000000     0.961480000000    -0.0366654  
C175     C      0.323640000000     0.350300000000     0.993080000000     0.0492825  
C176     C      0.166640000000     0.194530000000     0.991000000000     0.0570037  
Cu1      Cu     0.990080000000     0.994820000000     0.972350000000     0.847135   
Cu2      Cu     0.996340000000     0.003210000000     0.035890000000     0.846512   
Cu3      Cu     0.003410000000     0.971690000000     0.469280000000     0.846888   
Cu4      Cu     0.011740000000     0.979010000000     0.532770000000     0.84741    
Cu5      Cu     0.535240000000     0.536620000000     0.000620000000     1.18098    
Cu6      Cu     0.457380000000     0.466490000000     0.999440000000     1.1527     
Cu7      Cu     0.546290000000     0.507090000000     0.499800000000     1.17548    
Cu8      Cu     0.465420000000     0.440050000000     0.500080000000     1.16143    
H1       H      0.562250000000     0.533050000000     0.605340000000     0.0242499  
H2       H      0.446310000000     0.441260000000     0.895370000000     0.0242363  
H3       H      0.581400000000     0.496350000000     0.718990000000     0.0372773  
H4       H      0.417060000000     0.479580000000     0.780980000000     0.0374778  
H5       H      0.446150000000     0.434030000000     0.833310000000     0.0535296  
H6       H      0.418360000000     0.472920000000     0.717900000000     0.0373293  
H7       H      0.546890000000     0.563420000000     0.825370000000     0.0581981  
H8       H      0.560700000000     0.538520000000     0.667830000000     0.0528692  
H9       H      0.441230000000     0.422830000000     0.670480000000     0.0525968  
H10      H      0.579710000000     0.504270000000     0.781910000000     0.037841   
H11      H      0.442550000000     0.419570000000     0.607650000000     0.0236342  
H12      H      0.423630000000     0.470550000000     0.393560000000     0.0147179  
H13      H      0.575700000000     0.497090000000     0.104830000000     0.0149332  
H14      H      0.440960000000     0.534710000000     0.283980000000     0.0374984  
H15      H      0.563010000000     0.441850000000     0.216590000000     0.0369122  
H16      H      0.579750000000     0.494410000000     0.167530000000     0.0527699  
H17      H      0.565680000000     0.440030000000     0.279850000000     0.0374991  
H18      H      0.417110000000     0.486650000000     0.172270000000     0.0577913  
H19      H      0.422440000000     0.474030000000     0.330670000000     0.0521763  
H20      H      0.585200000000     0.496290000000     0.330550000000     0.0529897  
H21      H      0.438820000000     0.537450000000     0.220870000000     0.0370169  
H22      H      0.584900000000     0.490200000000     0.393630000000     0.0214986  
H23      H      0.113440000000     0.864410000000     0.444960000000     0.0258325  
H24      H      0.346990000000     0.531760000000     0.496150000000     0.0261212  
H25      H      0.189320000000     0.719450000000     0.461460000000     0.0376048  
H26      H      0.340080000000     0.740770000000     0.537560000000     0.0376551  
H27      H      0.285410000000     0.592940000000     0.496270000000     0.0526318  
H28      H      0.278310000000     0.803580000000     0.537300000000     0.0378679  
H29      H      0.404010000000     0.707660000000     0.501640000000     0.0569546  
H30      H      0.176190000000     0.803170000000     0.444170000000     0.0518183  
H31      H      0.193180000000     0.818520000000     0.554910000000     0.0521234  
H32      H      0.251990000000     0.657410000000     0.460900000000     0.0368551  
H33      H      0.130810000000     0.880120000000     0.554760000000     0.0263472  
H34      H      0.633580000000     0.518530000000     0.544270000000     0.014353   
H35      H      0.873590000000     0.874350000000     0.462030000000     0.0248414  
H36      H      0.776250000000     0.621270000000     0.524490000000     0.0371976  
H37      H      0.727630000000     0.792530000000     0.505300000000     0.0380555  
H38      H      0.808270000000     0.809130000000     0.465020000000     0.0547572  
H39      H      0.663140000000     0.724640000000     0.501460000000     0.0382998  
H40      H      0.856960000000     0.771250000000     0.567180000000     0.0589457  
H41      H      0.701140000000     0.583910000000     0.551360000000     0.0511304  
H42      H      0.641770000000     0.658080000000     0.462220000000     0.0521034  
H43      H      0.840260000000     0.689730000000     0.529490000000     0.0380503  
H44      H      0.574210000000     0.592320000000     0.458160000000     0.0179643  
H45      H      0.900000000000     0.084660000000     0.557250000000     0.0261401  
H46      H      0.665240000000     0.416190000000     0.505150000000     0.0255222  
H47      H      0.822900000000     0.229190000000     0.541200000000     0.0375821  
H48      H      0.673510000000     0.207460000000     0.463860000000     0.037209   
H49      H      0.726930000000     0.355120000000     0.505590000000     0.0526077  
H50      H      0.735880000000     0.145180000000     0.464300000000     0.0375778  
H51      H      0.608610000000     0.240190000000     0.499420000000     0.0570527  
H52      H      0.836460000000     0.145160000000     0.558090000000     0.0520251  
H53      H      0.821780000000     0.131870000000     0.447080000000     0.05173    
H54      H      0.759680000000     0.290720000000     0.541530000000     0.037046   
H55      H      0.884950000000     0.071070000000     0.447180000000     0.0255525  
H56      H      0.111210000000     0.085560000000     0.433210000000     0.0249245  
H57      H      0.383410000000     0.402140000000     0.548460000000     0.0143035  
H58      H      0.261660000000     0.178900000000     0.446430000000     0.0380989  
H59      H      0.230600000000     0.333240000000     0.509540000000     0.0369772  
H60      H      0.310230000000     0.343360000000     0.539660000000     0.0516422  
H61      H      0.164590000000     0.266340000000     0.507840000000     0.0376773  
H62      H      0.355900000000     0.327350000000     0.432550000000     0.0479574  
H63      H      0.168200000000     0.158510000000     0.425930000000     0.0534502  
H64      H      0.169020000000     0.179850000000     0.536740000000     0.0538864  
H65      H      0.328280000000     0.244840000000     0.448920000000     0.0376145  
H66      H      0.112730000000     0.106920000000     0.543370000000     0.0251135  
H67      H      0.100060000000     0.887700000000     0.949980000000     0.0264017  
H68      H      0.335090000000     0.555130000000     0.999470000000     0.0260242  
H69      H      0.173310000000     0.741690000000     0.967530000000     0.0377673  
H70      H      0.324230000000     0.762680000000     0.043480000000     0.037363   
H71      H      0.271770000000     0.614870000000     0.001260000000     0.0528485  
H72      H      0.262190000000     0.825270000000     0.043690000000     0.0378053  
H73      H      0.387850000000     0.732030000000     0.006060000000     0.0572337  
H74      H      0.161890000000     0.825740000000     0.949950000000     0.0522253  
H75      H      0.176640000000     0.841070000000     0.060830000000     0.0518224  
H76      H      0.236180000000     0.679790000000     0.966580000000     0.0374546  
H77      H      0.114940000000     0.903500000000     0.059930000000     0.0257775  
H78      H      0.889030000000     0.889480000000     0.071730000000     0.0249245  
H79      H      0.619340000000     0.574190000000     0.954460000000     0.017087   
H80      H      0.738780000000     0.795970000000     0.058260000000     0.0381408  
H81      H      0.770820000000     0.640830000000     0.996480000000     0.0378284  
H82      H      0.692570000000     0.632220000000     0.964830000000     0.0526879  
H83      H      0.836950000000     0.707600000000     0.998460000000     0.0380395  
H84      H      0.642850000000     0.647250000000     0.071170000000     0.048092   
H85      H      0.832210000000     0.816550000000     0.079240000000     0.0535372  
H86      H      0.832260000000     0.793860000000     0.968570000000     0.0540954  
H87      H      0.672030000000     0.730160000000     0.055450000000     0.03778    
H88      H      0.888450000000     0.866920000000     0.961690000000     0.0251292  
H89      H      0.879860000000     0.105510000000     0.057980000000     0.0255377  
H90      H      0.537940000000     0.338810000000     0.007750000000     0.0264141  
H91      H      0.802510000000     0.243510000000     0.955710000000     0.0379611  
H92      H      0.665580000000     0.241030000000     0.043610000000     0.0374397  
H93      H      0.595070000000     0.272950000000     0.008330000000     0.0531764  
H94      H      0.726360000000     0.176830000000     0.044610000000     0.0377228  
H95      H      0.720400000000     0.377090000000     0.989260000000     0.0571603  
H96      H      0.816090000000     0.165930000000     0.057130000000     0.0517848  
H97      H      0.810670000000     0.155910000000     0.945620000000     0.0522446  
H98      H      0.741400000000     0.306870000000     0.954330000000     0.0376403  
H99      H      0.874570000000     0.095870000000     0.947320000000     0.0263637  
H100     H      0.436840000000     0.381810000000     0.955610000000     0.0151506  
H101     H      0.076900000000     0.141320000000     0.042990000000     0.0246441  
H102     H      0.266090000000     0.319890000000     0.937820000000     0.0380872  
H103     H      0.224290000000     0.227050000000     0.045940000000     0.0372596  
H104     H      0.136010000000     0.211590000000     0.041280000000     0.053686   
H105     H      0.289820000000     0.293920000000     0.046850000000     0.038958   
H106     H      0.187870000000     0.167040000000     0.941100000000     0.0580355  
H107     H      0.365870000000     0.318920000000     0.951230000000     0.0523009  
H108     H      0.291980000000     0.390890000000     0.035430000000     0.0527961  
H109     H      0.198440000000     0.254280000000     0.936960000000     0.0371502  
H110     H      0.363740000000     0.453070000000     0.037340000000     0.0170339  
N1       N      0.497370000000     0.506270000000     0.897660000000    -0.207365   
N2       N      0.502450000000     0.476000000000     0.601800000000    -0.207084   
N3       N      0.494850000000     0.497350000000     0.102190000000    -0.210486   
N4       N      0.504530000000     0.476760000000     0.397860000000    -0.207696   
N5       N      0.412610000000     0.582710000000     0.499200000000    -0.203995   
N6       N      0.117150000000     0.876970000000     0.499900000000    -0.190729   
N7       N      0.903940000000     0.861870000000     0.512930000000    -0.198679   
N8       N      0.600870000000     0.552610000000     0.501000000000    -0.264409   
N9       N      0.599770000000     0.365110000000     0.501680000000    -0.204096   
N10      N      0.897510000000     0.073220000000     0.502170000000    -0.190852   
N11      N      0.410370000000     0.394770000000     0.497050000000    -0.259375   
N12      N      0.107810000000     0.091000000000     0.488790000000    -0.196709   
N13      N      0.399480000000     0.607600000000     0.001880000000    -0.203426   
N14      N      0.102540000000     0.900330000000     0.004950000000    -0.190614   
N15      N      0.589770000000     0.582110000000     0.005060000000    -0.260996   
N16      N      0.892900000000     0.883430000000     0.016190000000    -0.196859   
N17      N      0.594950000000     0.397250000000     0.998210000000    -0.204435   
N18      N      0.882380000000     0.096170000000     0.002740000000    -0.190659   
N19      N      0.096660000000     0.112870000000     0.992990000000    -0.198495   
N20      N      0.403670000000     0.419920000000     0.996910000000    -0.26168    
O1       O      0.045890000000     0.946620000000     0.975860000000    -0.392575   
O2       O      0.934630000000     0.043820000000     0.974860000000    -0.39185    
O3       O      0.042970000000     0.051610000000     0.969500000000    -0.398349   
O4       O      0.938430000000     0.938470000000     0.981520000000    -0.403299   
O5       O      0.944420000000     0.946050000000     0.038940000000    -0.404858   
O6       O      0.047530000000     0.059670000000     0.026830000000    -0.404904   
O7       O      0.939670000000     0.050850000000     0.032300000000    -0.391751   
O8       O      0.052290000000     0.954410000000     0.033200000000    -0.390729   
O9       O      0.059220000000     0.923070000000     0.471740000000    -0.392349   
O10      O      0.948310000000     0.020890000000     0.472970000000    -0.39254    
O11      O      0.056090000000     0.028390000000     0.466030000000    -0.403791   
O12      O      0.951420000000     0.916000000000     0.478670000000    -0.404664   
O13      O      0.959940000000     0.921500000000     0.535930000000    -0.399395   
O14      O      0.062510000000     0.035860000000     0.523440000000    -0.404142   
O15      O      0.955090000000     0.026760000000     0.530400000000    -0.391481   
O16      O      0.067550000000     0.930550000000     0.528990000000    -0.391618   
O17      O      0.528790000000     0.533840000000     0.950710000000    -0.47096    
O18      O      0.524100000000     0.532120000000     0.050360000000    -0.491993   
O19      O      0.574270000000     0.478720000000     0.999640000000    -0.475191   
O20      O      0.481010000000     0.581220000000     0.999020000000    -0.465061   
O21      O      0.417970000000     0.525320000000     0.001640000000    -0.462411   
O22      O      0.512490000000     0.421480000000     0.999160000000    -0.461123   
O23      O      0.465900000000     0.470360000000     0.049320000000    -0.467251   
O24      O      0.466770000000     0.476680000000     0.950000000000    -0.476704   
O25      O      0.537390000000     0.500870000000     0.450130000000    -0.475404   
O26      O      0.535400000000     0.501140000000     0.549340000000    -0.479344   
O27      O      0.583970000000     0.447790000000     0.499870000000    -0.471086   
O28      O      0.493330000000     0.553680000000     0.499280000000    -0.464417   
O29      O      0.428350000000     0.499910000000     0.499480000000    -0.468777   
O30      O      0.519000000000     0.394050000000     0.502400000000    -0.462766   
O31      O      0.471250000000     0.445790000000     0.549930000000    -0.473747   
O32      O      0.474910000000     0.443230000000     0.450100000000    -0.488712   
S1       S      0.553530000000     0.589400000000     0.892940000000    -0.0180619  
S2       S      0.396270000000     0.497050000000     0.103720000000    -0.030705   
S3       S      0.485520000000     0.653120000000     0.503370000000    -0.0178953  
S4       S      0.938140000000     0.836710000000     0.574010000000    -0.0204843  
S5       S      0.527050000000     0.294730000000     0.496380000000    -0.0178494  
S6       S      0.447990000000     0.391570000000     0.433490000000     0.0797268  
S7       S      0.470780000000     0.679610000000     0.006350000000    -0.0153896  
S8       S      0.550600000000     0.583080000000     0.068260000000     0.0827342  
S9       S      0.671630000000     0.460690000000     0.983920000000    -0.0184302  
S10      S      0.128670000000     0.083180000000     0.932490000000    -0.0203138  


