data_structure

_audit_creation_method RASPA-1.0
_audit_creation_date 2023-6-4
_audit_author_name 'Poobodin Mano'

_cell_length_a    26.5732
_cell_length_b    26.713
_cell_length_c    38.4321
_cell_angle_alpha 89.9988
_cell_angle_beta  89.9988
_cell_angle_gamma 93.6516
_cell_volume      27225.6

_symmetry_cell_setting          triclinic
_symmetry_space_group_name_Hall 'P 1'
_symmetry_space_group_name_H-M  'P 1'
_symmetry_Int_Tables_number     1

_symmetry_equiv_pos_as_xyz 'x,y,z'

loop_
_atom_site_label
_atom_site_type_symbol
_atom_site_fract_x
_atom_site_fract_y
_atom_site_fract_z
_atom_site_charge
C1       C      0.068660000000     0.931730000000     0.000610000000     0.404432   
C2       C      0.927950000000     0.067290000000     0.999820000000     0.403563   
C3       C      0.070970000000     0.070490000000     0.991950000000     0.410162   
C4       C      0.928020000000     0.924790000000     0.009300000000     0.410571   
C5       C      0.064570000000     0.929370000000     0.501050000000     0.40992    
C6       C      0.927780000000     0.066200000000     0.495540000000     0.407583   
C7       C      0.070390000000     0.064190000000     0.516260000000     0.416973   
C8       C      0.922710000000     0.933020000000     0.482350000000     0.417741   
C9       C      0.505800000000     0.511490000000     0.942650000000     0.473212   
C10      C      0.485120000000     0.490820000000     0.073950000000     0.472428   
C11      C      0.562580000000     0.433630000000     0.008150000000     0.455335   
C12      C      0.432520000000     0.564380000000     0.008560000000     0.460753   
C13      C      0.490000000000     0.493920000000     0.442230000000     0.477318   
C14      C      0.505290000000     0.506480000000     0.574270000000     0.476449   
C15      C      0.565290000000     0.434800000000     0.507220000000     0.468954   
C16      C      0.431250000000     0.565010000000     0.508740000000     0.468795   
C17      C      0.541660000000     0.552520000000     0.853180000000    -0.107522   
C18      C      0.477120000000     0.477330000000     0.629860000000     0.0768184  
C19      C      0.541520000000     0.542750000000     0.625980000000     0.0765314  
C20      C      0.479490000000     0.478730000000     0.666090000000    -0.0964508  
C21      C      0.515490000000     0.469640000000     0.740450000000    -0.035993   
C22      C      0.515560000000     0.470570000000     0.776750000000    -0.034561   
C23      C      0.516290000000     0.514460000000     0.721300000000    -0.0073511  
C24      C      0.544570000000     0.545440000000     0.662270000000    -0.0959674  
C25      C      0.516100000000     0.516360000000     0.794850000000    -0.00979198 
C26      C      0.482270000000     0.481160000000     0.851080000000    -0.0989325  
C27      C      0.518040000000     0.561320000000     0.775680000000    -0.0344108  
C28      C      0.480570000000     0.480990000000     0.887260000000     0.0757459  
C29      C      0.539290000000     0.551890000000     0.889690000000     0.105239   
C30      C      0.518270000000     0.560370000000     0.739270000000    -0.0358491  
C31      C      0.513520000000     0.512960000000     0.682740000000     0.0511978  
C32      C      0.513380000000     0.516810000000     0.833520000000     0.0561506  
C33      C      0.441000000000     0.458650000000     0.163380000000    -0.107886   
C34      C      0.517770000000     0.523450000000     0.386650000000     0.0769444  
C35      C      0.451710000000     0.459730000000     0.390570000000     0.0766462  
C36      C      0.514580000000     0.522860000000     0.350440000000    -0.0961606  
C37      C      0.480560000000     0.534790000000     0.276230000000    -0.035947   
C38      C      0.479750000000     0.534390000000     0.239920000000    -0.0344405  
C39      C      0.475160000000     0.489700000000     0.295150000000    -0.0071845  
C40      C      0.447430000000     0.458250000000     0.354310000000    -0.0957645  
C41      C      0.473300000000     0.488940000000     0.221600000000    -0.00994601 
C42      C      0.512310000000     0.518270000000     0.165510000000    -0.099263   
C43      C      0.466500000000     0.443900000000     0.240420000000    -0.0344396  
C44      C      0.514350000000     0.517720000000     0.129340000000     0.075757   
C45      C      0.443470000000     0.458790000000     0.126880000000     0.105432   
C46      C      0.467500000000     0.444260000000     0.276830000000    -0.0359235  
C47      C      0.478960000000     0.490230000000     0.333760000000     0.0509602  
C48      C      0.475390000000     0.488630000000     0.182990000000     0.0565116  
C49      C      0.186060000000     0.875900000000     0.517240000000    -0.103632   
C50      C      0.345690000000     0.587570000000     0.505390000000     0.0747303  
C51      C      0.411480000000     0.650820000000     0.511900000000     0.075002   
C52      C      0.309870000000     0.623920000000     0.504570000000    -0.0933625  
C53      C      0.237480000000     0.704430000000     0.519570000000    -0.035488   
C54      C      0.201950000000     0.740970000000     0.518320000000    -0.0351825  
C55      C      0.287060000000     0.714760000000     0.507290000000    -0.00657363 
C56      C      0.376640000000     0.688010000000     0.511890000000    -0.0938169  
C57      C      0.215080000000     0.789260000000     0.505440000000    -0.00851838 
C58      C      0.129770000000     0.815320000000     0.488010000000    -0.0958044  
C59      C      0.264620000000     0.800220000000     0.493760000000    -0.0353352  
C60      C      0.093280000000     0.850680000000     0.486990000000     0.076673   
C61      C      0.147940000000     0.910180000000     0.516950000000     0.10287    
C62      C      0.299970000000     0.763370000000     0.494320000000    -0.0355826  
C63      C      0.324890000000     0.675160000000     0.507930000000     0.0487473  
C64      C      0.176640000000     0.827460000000     0.503520000000     0.0538505  
C65      C      0.795540000000     0.876710000000     0.491420000000    -0.105801   
C66      C      0.619730000000     0.585380000000     0.473530000000     0.0735605  
C67      C      0.582790000000     0.631930000000     0.518340000000     0.0737787  
C68      C      0.654000000000     0.625540000000     0.466100000000    -0.0921378  
C69      C      0.739360000000     0.705250000000     0.471900000000    -0.0362481  
C70      C      0.774170000000     0.745800000000     0.467050000000    -0.0340825  
C71      C      0.688420000000     0.713160000000     0.477950000000    -0.00658549 
C72      C      0.616390000000     0.673000000000     0.511830000000    -0.0920489  
C73      C      0.758750000000     0.795110000000     0.468150000000    -0.0095645  
C74      C      0.838120000000     0.836800000000     0.444390000000    -0.0985029  
C75      C      0.707540000000     0.803070000000     0.473170000000    -0.0346979  
C76      C      0.878840000000     0.871640000000     0.448430000000     0.0773649  
C77      C      0.837200000000     0.910880000000     0.495080000000     0.103145   
C78      C      0.672630000000     0.762400000000     0.478000000000    -0.0365131  
C79      C      0.652280000000     0.670150000000     0.485230000000     0.0480857  
C80      C      0.797110000000     0.837570000000     0.467220000000     0.0560336  
C81      C      0.806160000000     0.122940000000     0.501540000000    -0.103457   
C82      C      0.651150000000     0.413420000000     0.503380000000     0.0745411  
C83      C      0.586110000000     0.349110000000     0.509000000000     0.0743906  
C84      C      0.687550000000     0.377700000000     0.502350000000    -0.0940013  
C85      C      0.752490000000     0.292740000000     0.480410000000    -0.0358646  
C86      C      0.788000000000     0.256180000000     0.478830000000    -0.0348247  
C87      C      0.711350000000     0.287640000000     0.503480000000    -0.00670112 
C88      C      0.621530000000     0.312460000000     0.508240000000    -0.0941218  
C89      C      0.783620000000     0.213480000000     0.500400000000    -0.00828834 
C90      C      0.872480000000     0.187090000000     0.491990000000    -0.0949867  
C91      C      0.742570000000     0.208530000000     0.523600000000    -0.0349139  
C92      C      0.906950000000     0.149800000000     0.489550000000     0.0753958  
C93      C      0.841430000000     0.086100000000     0.498480000000     0.105426   
C94      C      0.706940000000     0.245020000000     0.525070000000    -0.0359133  
C95      C      0.673080000000     0.326380000000     0.504790000000     0.0490187  
C96      C      0.821330000000     0.174120000000     0.498460000000     0.0534269  
C97      C      0.198440000000     0.121050000000     0.518570000000    -0.10629    
C98      C      0.369470000000     0.407290000000     0.497090000000     0.0738743  
C99      C      0.419220000000     0.374560000000     0.541920000000     0.0729251  
C100     C      0.333080000000     0.367850000000     0.501230000000    -0.0920303  
C101     C      0.250350000000     0.296940000000     0.529440000000    -0.0364112  
C102     C      0.214320000000     0.256980000000     0.532100000000    -0.03392    
C103     C      0.301890000000     0.288660000000     0.531270000000    -0.00635318 
C104     C      0.383730000000     0.334630000000     0.547060000000    -0.0918157  
C105     C      0.228960000000     0.207810000000     0.536970000000    -0.00963274 
C106     C      0.143380000000     0.170460000000     0.552480000000    -0.0982995  
C107     C      0.280500000000     0.199620000000     0.539770000000    -0.0343574  
C108     C      0.104330000000     0.134260000000     0.546850000000     0.0778562  
C109     C      0.158390000000     0.085300000000     0.513350000000     0.105581   
C110     C      0.316650000000     0.239680000000     0.536910000000    -0.0365355  
C111     C      0.340010000000     0.330920000000     0.526530000000     0.0477921  
C112     C      0.190280000000     0.165400000000     0.536700000000     0.0562642  
C113     C      0.164650000000     0.845210000000     0.972420000000    -0.105709   
C114     C      0.412350000000     0.650040000000     0.011400000000     0.07593    
C115     C      0.346790000000     0.586100000000     0.006170000000     0.0757762  
C116     C      0.377200000000     0.686850000000     0.011220000000    -0.0949431  
C117     C      0.296350000000     0.755690000000     0.987870000000    -0.035796   
C118     C      0.260640000000     0.791940000000     0.986780000000    -0.0345397  
C119     C      0.287730000000     0.711910000000     0.007890000000    -0.00701396 
C120     C      0.310590000000     0.621950000000     0.006230000000    -0.0946837  
C121     C      0.215540000000     0.785550000000     0.005880000000    -0.00914802 
C122     C      0.153550000000     0.840010000000     0.034240000000    -0.0958314  
C123     C      0.207100000000     0.742040000000     0.026210000000    -0.0345751  
C124     C      0.118220000000     0.876500000000     0.032100000000     0.0716457  
C125     C      0.128910000000     0.881620000000     0.970780000000     0.104275   
C126     C      0.242650000000     0.705510000000     0.027050000000    -0.0358896  
C127     C      0.325580000000     0.673080000000     0.008590000000     0.0502417  
C128     C      0.177270000000     0.823910000000     0.004210000000     0.0545059  
C129     C      0.681770000000     0.587160000000     0.016710000000    -0.0889976  
C130     C      0.871600000000     0.861070000000     0.985720000000     0.0745015  
C131     C      0.888060000000     0.863270000000     0.046400000000     0.0740775  
C132     C      0.840460000000     0.817540000000     0.989690000000    -0.0942046  
C133     C      0.767800000000     0.745510000000     0.056590000000    -0.0350625  
C134     C      0.731210000000     0.705950000000     0.058890000000    -0.0361907  
C135     C      0.799500000000     0.750320000000     0.027360000000    -0.00732319 
C136     C      0.857860000000     0.819300000000     0.051210000000    -0.0946808  
C137     C      0.724950000000     0.670900000000     0.031740000000    -0.00641581 
C138     C      0.632650000000     0.653010000000     0.040230000000    -0.0931171  
C139     C      0.758790000000     0.673760000000     0.003630000000    -0.0358209  
C140     C      0.589010000000     0.622450000000     0.035190000000     0.0767295  
C141     C      0.636950000000     0.557810000000     0.012130000000     0.0640855  
C142     C      0.795920000000     0.712920000000     0.001590000000    -0.0353751  
C143     C      0.833630000000     0.795840000000     0.022680000000     0.0507644  
C144     C      0.679660000000     0.635820000000     0.030540000000     0.0465639  
C145     C      0.835830000000     0.158020000000     0.970880000000    -0.104928   
C146     C      0.582840000000     0.348820000000     0.012380000000     0.0763288  
C147     C      0.647570000000     0.412960000000     0.003240000000     0.0765279  
C148     C      0.618010000000     0.311950000000     0.012220000000    -0.0959755  
C149     C      0.705500000000     0.247110000000     0.029780000000    -0.0361226  
C150     C      0.741570000000     0.211030000000     0.028840000000    -0.0347999  
C151     C      0.708160000000     0.287820000000     0.006440000000    -0.00667039 
C152     C      0.684370000000     0.377770000000     0.002780000000    -0.0962246  
C153     C      0.781050000000     0.214480000000     0.004380000000    -0.00887702 
C154     C      0.839260000000     0.156040000000     0.033110000000    -0.0950269  
C155     C      0.783720000000     0.255250000000     0.981100000000    -0.0347719  
C156     C      0.875390000000     0.120250000000     0.031040000000     0.0705618  
C157     C      0.872020000000     0.121950000000     0.969300000000     0.103252   
C158     C      0.747850000000     0.291430000000     0.982160000000    -0.0359837  
C159     C      0.669730000000     0.326300000000     0.007280000000     0.0482145  
C160     C      0.819080000000     0.175620000000     0.002840000000     0.0536798  
C161     C      0.408850000000     0.316270000000     0.996320000000    -0.0886725  
C162     C      0.133240000000     0.127380000000     0.016520000000     0.0742097  
C163     C      0.133250000000     0.111790000000     0.955750000000     0.0732148  
C164     C      0.177080000000     0.158320000000     0.013530000000    -0.095038   
C165     C      0.252650000000     0.232350000000     0.949730000000    -0.0351332  
C166     C      0.292260000000     0.269130000000     0.949560000000    -0.0362579  
C167     C      0.246590000000     0.198870000000     0.977810000000    -0.00751803 
C168     C      0.177580000000     0.142130000000     0.951870000000    -0.0948442  
C169     C      0.326090000000     0.273570000000     0.977670000000    -0.00631425 
C170     C      0.343200000000     0.366100000000     0.973100000000    -0.0928903  
C171     C      0.322320000000     0.237670000000     0.004370000000    -0.0359228  
C172     C      0.373260000000     0.409360000000     0.980110000000     0.0765087  
C173     C      0.437660000000     0.360730000000     0.002940000000     0.0640043  
C174     C      0.283130000000     0.200470000000     0.004310000000    -0.03551    
C175     C      0.200250000000     0.165430000000     0.981040000000     0.0508395  
C176     C      0.360620000000     0.318880000000     0.981450000000     0.0463632  
Cu1      Cu     0.994100000000     0.994660000000     0.968710000000     0.850796   
Cu2      Cu     0.001920000000     0.003420000000     0.032280000000     0.846123   
Cu3      Cu     0.006470000000     0.004590000000     0.467530000000     0.84738    
Cu4      Cu     0.987160000000     0.992140000000     0.529950000000     0.860138   
Cu5      Cu     0.535520000000     0.534530000000     0.011980000000     1.17957    
Cu6      Cu     0.461460000000     0.461560000000     0.004590000000     1.17591    
Cu7      Cu     0.536020000000     0.537610000000     0.505400000000     1.19335    
Cu8      Cu     0.460220000000     0.461920000000     0.511110000000     1.18424    
H1       H      0.566410000000     0.568320000000     0.611050000000     0.0241539  
H2       H      0.455630000000     0.452180000000     0.899160000000     0.0247329  
H3       H      0.518490000000     0.595510000000     0.725190000000     0.0376586  
H4       H      0.515220000000     0.435280000000     0.790650000000     0.0367054  
H5       H      0.458780000000     0.453440000000     0.836960000000     0.0533129  
H6       H      0.514900000000     0.433710000000     0.727320000000     0.0373811  
H7       H      0.566390000000     0.580430000000     0.840170000000     0.0571642  
H8       H      0.571600000000     0.572260000000     0.674190000000     0.0530078  
H9       H      0.454320000000     0.453430000000     0.680970000000     0.0529962  
H10      H      0.517980000000     0.597210000000     0.788770000000     0.0373158  
H11      H      0.450120000000     0.450200000000     0.618140000000     0.0234747  
H12      H      0.624250000000     0.582100000000     0.917200000000     0.034668   
H13      H      0.426360000000     0.434620000000     0.405510000000     0.0239691  
H14      H      0.544010000000     0.541680000000     0.117430000000     0.0246878  
H15      H      0.463740000000     0.408820000000     0.290560000000     0.0373078  
H16      H      0.484180000000     0.569780000000     0.226150000000     0.0371351  
H17      H      0.540170000000     0.541530000000     0.179730000000     0.0535254  
H18      H      0.485410000000     0.570540000000     0.289500000000     0.0374167  
H19      H      0.411840000000     0.435470000000     0.176470000000     0.0576022  
H20      H      0.419060000000     0.432730000000     0.342530000000     0.0527082  
H21      H      0.540420000000     0.547560000000     0.335620000000     0.0525865  
H22      H      0.461920000000     0.408240000000     0.227010000000     0.0366857  
H23      H      0.545960000000     0.549370000000     0.398330000000     0.0234085  
H24      H      0.416110000000     0.372140000000     0.101440000000     0.0339454  
H25      H      0.450960000000     0.662910000000     0.514980000000     0.0234638  
H26      H      0.057400000000     0.840250000000     0.474620000000     0.0171316  
H27      H      0.337170000000     0.772980000000     0.483920000000     0.0365819  
H28      H      0.164160000000     0.731580000000     0.527870000000     0.0382171  
H29      H      0.121480000000     0.778730000000     0.476460000000     0.0538021  
H30      H      0.225930000000     0.668210000000     0.530560000000     0.0369219  
H31      H      0.222360000000     0.886520000000     0.528830000000     0.0553214  
H32      H      0.390560000000     0.726630000000     0.515430000000     0.0513559  
H33      H      0.270690000000     0.611610000000     0.500720000000     0.0516568  
H34      H      0.275680000000     0.836970000000     0.483350000000     0.0373881  
H35      H      0.332180000000     0.548610000000     0.502590000000     0.023853   
H36      H      0.199230000000     0.973370000000     0.558630000000     0.0331075  
H37      H      0.554560000000     0.634190000000     0.538460000000     0.0144154  
H38      H      0.911420000000     0.868680000000     0.431700000000     0.0196831  
H39      H      0.633370000000     0.769480000000     0.482010000000     0.0369624  
H40      H      0.813550000000     0.738530000000     0.463920000000     0.0375336  
H41      H      0.839670000000     0.808130000000     0.424550000000     0.0534243  
H42      H      0.752730000000     0.667770000000     0.472180000000     0.037347   
H43      H      0.763190000000     0.879570000000     0.508290000000     0.0555154  
H44      H      0.614470000000     0.706470000000     0.527560000000     0.051013   
H45      H      0.680890000000     0.622030000000     0.445210000000     0.0509161  
H46      H      0.694610000000     0.840700000000     0.473790000000     0.0361346  
H47      H      0.620320000000     0.551260000000     0.458430000000     0.014117   
H48      H      0.794210000000     0.955810000000     0.546120000000     0.0313816  
H49      H      0.546710000000     0.336390000000     0.511530000000     0.0239688  
H50      H      0.946450000000     0.161320000000     0.485590000000     0.0186261  
H51      H      0.676240000000     0.240110000000     0.543530000000     0.0371474  
H52      H      0.818400000000     0.261030000000     0.460140000000     0.037024   
H53      H      0.886200000000     0.225960000000     0.489520000000     0.0526876  
H54      H      0.756750000000     0.324580000000     0.462970000000     0.0373006  
H55      H      0.766460000000     0.111450000000     0.503980000000     0.0568671  
H56      H      0.608360000000     0.273310000000     0.509790000000     0.051949   
H57      H      0.726940000000     0.390400000000     0.500070000000     0.0522072  
H58      H      0.738210000000     0.176680000000     0.541010000000     0.0373715  
H59      H      0.664230000000     0.452600000000     0.501470000000     0.0243549  
H60      H      0.815850000000     0.012000000000     0.455120000000     0.0411926  
H61      H      0.453070000000     0.377390000000     0.557620000000     0.0142079  
H62      H      0.067590000000     0.140400000000     0.557820000000     0.0202936  
H63      H      0.356150000000     0.232080000000     0.538220000000     0.0368353  
H64      H      0.174970000000     0.264550000000     0.529290000000     0.0371425  
H65      H      0.136280000000     0.203120000000     0.568000000000     0.053592   
H66      H      0.237770000000     0.334340000000     0.525660000000     0.0372712  
H67      H      0.235030000000     0.114910000000     0.507520000000     0.0553864  
H68      H      0.390240000000     0.307280000000     0.567100000000     0.0506859  
H69      H      0.300260000000     0.365950000000     0.484470000000     0.0512847  
H70      H      0.292930000000     0.162240000000     0.543840000000     0.0357853  
H71      H      0.364360000000     0.435740000000     0.477600000000     0.0142567  
H72      H      0.218390000000     0.026210000000     0.480850000000     0.0314463  
H73      H      0.333460000000     0.547000000000     0.004040000000     0.0247495  
H74      H      0.100840000000     0.887230000000     0.056280000000     0.025531   
H75      H      0.235050000000     0.672430000000     0.042960000000     0.0378878  
H76      H      0.268530000000     0.825240000000     0.971130000000     0.0372058  
H77      H      0.162630000000     0.824920000000     0.059480000000     0.0531745  
H78      H      0.330460000000     0.761620000000     0.972600000000     0.0378832  
H79      H      0.182670000000     0.833480000000     0.948730000000     0.0579189  
H80      H      0.271110000000     0.609630000000     0.003820000000     0.0530006  
H81      H      0.390460000000     0.725900000000     0.013490000000     0.0528608  
H82      H      0.172610000000     0.735840000000     0.041040000000     0.0375309  
H83      H      0.451860000000     0.662540000000     0.013550000000     0.0247039  
H84      H      0.153660000000     0.949000000000     0.925050000000     0.0377251  
H85      H      0.906460000000     0.879940000000     0.069170000000     0.0249365  
H86      H      0.552700000000     0.635700000000     0.042060000000     0.010162   
H87      H      0.820690000000     0.714790000000     0.979180000000     0.0371875  
H88      H      0.706330000000     0.704120000000     0.081240000000     0.0367571  
H89      H      0.629280000000     0.690520000000     0.050260000000     0.0515675  
H90      H      0.769350000000     0.773610000000     0.076930000000     0.0367954  
H91      H      0.717260000000     0.572870000000     0.008820000000     0.0474247  
H92      H      0.854050000000     0.803630000000     0.077140000000     0.0522724  
H93      H      0.821350000000     0.801530000000     0.967020000000     0.0529606  
H94      H      0.754900000000     0.647460000000     0.982210000000     0.0363584  
H95      H      0.876110000000     0.876470000000     0.959720000000     0.0256386  
H96      H      0.638480000000     0.506620000000     0.956020000000     0.0188085  
H97      H      0.651750000000     0.453060000000     0.998650000000     0.00899509 
H98      H      0.889560000000     0.106730000000     0.055530000000     0.0262952  
H99      H      0.750890000000     0.321930000000     0.963560000000     0.0368914  
H100     H      0.738080000000     0.179980000000     0.046980000000     0.037096   
H101     H      0.827830000000     0.168840000000     0.058480000000     0.0528094  
H102     H      0.675780000000     0.243360000000     0.049050000000     0.0369151  
H103     H      0.820430000000     0.172140000000     0.946950000000     0.0574183  
H104     H      0.723450000000     0.390510000000     0.998900000000     0.0514986  
H105     H      0.605050000000     0.273030000000     0.015680000000     0.0513416  
H106     H      0.813870000000     0.259490000000     0.962160000000     0.0369351  
H107     H      0.542500000000     0.344880000000     0.016940000000     0.00896419 
H108     H      0.930200000000     0.136200000000     0.916290000000     0.0385478  
H109     H      0.117280000000     0.093750000000     0.932630000000     0.0243307  
H110     H      0.360060000000     0.445760000000     0.973880000000     0.0104159  
H111     H      0.280260000000     0.174250000000     0.025820000000     0.0369752  
H112     H      0.294930000000     0.295610000000     0.928190000000     0.0367914  
H113     H      0.305960000000     0.369800000000     0.962350000000     0.051621   
H114     H      0.225270000000     0.232100000000     0.928850000000     0.0367764  
H115     H      0.423340000000     0.280600000000     0.003210000000     0.0472717  
H116     H      0.194290000000     0.146600000000     0.926260000000     0.0520369  
H117     H      0.192330000000     0.176940000000     0.036610000000     0.0528567  
H118     H      0.347690000000     0.240020000000     0.026450000000     0.0361786  
H119     H      0.116890000000     0.122600000000     0.042260000000     0.0249963  
H120     H      0.488130000000     0.357360000000     0.059480000000     0.0186683  
N1       N      0.508900000000     0.515530000000     0.906880000000    -0.209027   
N2       N      0.508030000000     0.508920000000     0.609900000000    -0.207814   
N3       N      0.480380000000     0.488610000000     0.109710000000    -0.208876   
N4       N      0.486490000000     0.492250000000     0.406620000000    -0.208017   
N5       N      0.101660000000     0.896590000000     0.502450000000    -0.198546   
N6       N      0.396220000000     0.600890000000     0.508750000000    -0.204998   
N7       N      0.879550000000     0.905370000000     0.475180000000    -0.202817   
N8       N      0.584840000000     0.589440000000     0.499060000000    -0.264728   
N9       N      0.891810000000     0.100250000000     0.493870000000    -0.198915   
N10      N      0.600710000000     0.399300000000     0.506560000000    -0.205041   
N11      N      0.111090000000     0.094450000000     0.525380000000    -0.202005   
N12      N      0.411500000000     0.409840000000     0.517300000000    -0.263467   
N13      N      0.105060000000     0.896990000000     0.000740000000    -0.195877   
N14      N      0.397350000000     0.599990000000     0.008720000000    -0.203429   
N15      N      0.592070000000     0.576560000000     0.020710000000    -0.2638     
N16      N      0.895410000000     0.883600000000     0.013840000000    -0.195672   
N17      N      0.892070000000     0.102790000000     0.999580000000    -0.194683   
N18      N      0.598090000000     0.398040000000     0.007960000000    -0.208511   
N19      N      0.418850000000     0.405730000000     0.995290000000    -0.263146   
N20      N      0.111840000000     0.103760000000     0.987940000000    -0.195919   
O1       O      0.047330000000     0.943560000000     0.972090000000    -0.393864   
O2       O      0.941810000000     0.046980000000     0.971440000000    -0.393815   
O3       O      0.049900000000     0.049570000000     0.965140000000    -0.401798   
O4       O      0.939940000000     0.939670000000     0.978440000000    -0.400067   
O5       O      0.948300000000     0.946820000000     0.035940000000    -0.403114   
O6       O      0.055700000000     0.058420000000     0.022670000000    -0.403294   
O7       O      0.947700000000     0.054210000000     0.028780000000    -0.393899   
O8       O      0.055220000000     0.951770000000     0.029340000000    -0.39454    
O9       O      0.052470000000     0.947190000000     0.471480000000    -0.395375   
O10      O      0.957630000000     0.060940000000     0.469630000000    -0.393543   
O11      O      0.064300000000     0.051380000000     0.484280000000    -0.399891   
O12      O      0.947690000000     0.955020000000     0.457600000000    -0.402948   
O13      O      0.935670000000     0.939140000000     0.514240000000    -0.406751   
O14      O      0.039540000000     0.048040000000     0.539860000000    -0.404519   
O15      O      0.932910000000     0.041620000000     0.523820000000    -0.394264   
O16      O      0.043410000000     0.943120000000     0.529270000000    -0.392531   
O17      O      0.529290000000     0.542930000000     0.962450000000    -0.466122   
O18      O      0.521900000000     0.516770000000     0.060260000000    -0.481898   
O19      O      0.575170000000     0.479400000000     0.000420000000    -0.494615   
O20      O      0.479330000000     0.577650000000     0.012130000000    -0.466033   
O21      O      0.418530000000     0.517980000000     0.004800000000    -0.464185   
O22      O      0.516540000000     0.421380000000     0.015970000000    -0.49285    
O23      O      0.453390000000     0.467590000000     0.054140000000    -0.465702   
O24      O      0.479460000000     0.475120000000     0.956360000000    -0.482162   
O25      O      0.521450000000     0.525200000000     0.456710000000    -0.484448   
O26      O      0.535140000000     0.534200000000     0.555610000000    -0.478953   
O27      O      0.578960000000     0.481320000000     0.505680000000    -0.474162   
O28      O      0.478100000000     0.578300000000     0.508170000000    -0.476774   
O29      O      0.417210000000     0.518470000000     0.509130000000    -0.469136   
O30      O      0.518540000000     0.421290000000     0.509270000000    -0.474853   
O31      O      0.472770000000     0.476280000000     0.559810000000    -0.484008   
O32      O      0.461770000000     0.464590000000     0.460890000000    -0.477821   
S1       S      0.577510000000     0.599080000000     0.911030000000    -0.0377216  
S2       S      0.397830000000     0.418580000000     0.105560000000    -0.0376164  
S3       S      0.162050000000     0.971310000000     0.533870000000    -0.040328   
S4       S      0.831320000000     0.964780000000     0.521740000000    -0.0280217  
S5       S      0.816320000000     0.024020000000     0.489790000000    -0.0529604  
S6       S      0.171630000000     0.025920000000     0.495920000000    -0.0364804  
S7       S      0.120260000000     0.908210000000     0.929220000000    -0.0429268  
S8       S      0.634470000000     0.499190000000     0.991210000000     0.0574964  
S9       S      0.890150000000     0.105020000000     0.926820000000    -0.0426478  
S10      S      0.496170000000     0.362270000000     0.024400000000     0.057095   


