data_structure

_audit_creation_method RASPA-1.0
_audit_creation_date 2023-5-19
_audit_author_name 'Poobodin Mano'

_cell_length_a    39.0168
_cell_length_b    39.0157
_cell_length_c    39.0164
_cell_angle_alpha 90
_cell_angle_beta  90
_cell_angle_gamma 90
_cell_volume      59393.4

_symmetry_cell_setting          triclinic
_symmetry_space_group_name_Hall 'P 1'
_symmetry_space_group_name_H-M  'P 1'
_symmetry_Int_Tables_number     1

_symmetry_equiv_pos_as_xyz 'x,y,z'

loop_
_atom_site_label
_atom_site_type_symbol
_atom_site_fract_x
_atom_site_fract_y
_atom_site_fract_z
_atom_site_charge
C1       C      0.995830000000     0.064290000000     0.499540000000     0.415991   
C2       C      0.995660000000     0.927310000000     0.500090000000     0.414221   
C3       C      0.927250000000     0.995760000000     0.497940000000     0.415225   
C4       C      0.064160000000     0.995600000000     0.501450000000     0.415178   
C5       C      0.997170000000     0.427340000000     0.493860000000     0.406153   
C6       C      0.996150000000     0.564130000000     0.495000000000     0.405863   
C7       C      0.995020000000     0.496420000000     0.426000000000     0.4151     
C8       C      0.998340000000     0.495130000000     0.562920000000     0.415092   
C9       C      0.564080000000     0.995510000000     0.497490000000     0.406596   
C10      C      0.427300000000     0.995550000000     0.498010000000     0.405578   
C11      C      0.495410000000     0.994620000000     0.429200000000     0.415114   
C12      C      0.495930000000     0.996340000000     0.566080000000     0.405772   
C13      C      0.498240000000     0.998340000000     0.066080000000     0.407128   
C14      C      0.499760000000     0.997770000000     0.929210000000     0.41435    
C15      C      0.497400000000     0.066530000000     0.997200000000     0.415627   
C16      C      0.500490000000     0.929610000000     0.997850000000     0.414491   
C17      C      0.997630000000     0.497320000000     0.062880000000     0.406436   
C18      C      0.997430000000     0.496720000000     0.926100000000     0.406326   
C19      C      0.066020000000     0.495140000000     0.994370000000     0.415225   
C20      C      0.929100000000     0.499000000000     0.994730000000     0.41523    
C21      C      0.497850000000     0.429690000000     0.995870000000     0.405985   
C22      C      0.497380000000     0.566460000000     0.996560000000     0.405913   
C23      C      0.429170000000     0.497740000000     0.996110000000     0.405661   
C24      C      0.565960000000     0.498350000000     0.996190000000     0.405949   
C25      C      0.839820000000     0.530380000000     0.994250000000    -0.165112   
C26      C      0.619010000000     0.497640000000     0.026490000000     0.0728078  
C27      C      0.618890000000     0.499490000000     0.965750000000     0.0728764  
C28      C      0.654810000000     0.497690000000     0.026870000000    -0.0926776  
C29      C      0.729650000000     0.477260000000     0.017830000000    -0.0378735  
C30      C      0.765470000000     0.477330000000     0.017580000000    -0.0294588  
C31      C      0.711150000000     0.499040000000     0.995890000000    -0.0044573  
C32      C      0.654680000000     0.499770000000     0.965220000000    -0.0928306  
C33      C      0.783580000000     0.499340000000     0.995540000000    -0.0188859  
C34      C      0.840110000000     0.468870000000     0.996340000000    -0.112437   
C35      C      0.765080000000     0.521200000000     0.973690000000    -0.0291034  
C36      C      0.875870000000     0.469480000000     0.996030000000     0.0827571  
C37      C      0.875720000000     0.530340000000     0.994350000000     0.242996   
C38      C      0.729260000000     0.520980000000     0.973790000000    -0.0377279  
C39      C      0.673090000000     0.498830000000     0.996000000000     0.0491871  
C40      C      0.821640000000     0.499520000000     0.995360000000     0.0815087  
C41      C      0.155410000000     0.464050000000     0.995710000000    -0.165037   
C42      C      0.376270000000     0.498350000000     0.965610000000     0.0727592  
C43      C      0.376090000000     0.496130000000     0.026340000000     0.0727458  
C44      C      0.340480000000     0.498050000000     0.965030000000    -0.0928221  
C45      C      0.265560000000     0.517950000000     0.973560000000    -0.0380474  
C46      C      0.229750000000     0.517590000000     0.973390000000    -0.0295225  
C47      C      0.283980000000     0.496210000000     0.995610000000    -0.00445421 
C48      C      0.340290000000     0.495610000000     0.026670000000    -0.0927173  
C49      C      0.211550000000     0.495360000000     0.995130000000    -0.0189077  
C50      C      0.154900000000     0.525560000000     0.993740000000    -0.112526   
C51      C      0.229960000000     0.473560000000     0.017120000000    -0.0290945  
C52      C      0.119160000000     0.524810000000     0.993610000000     0.0828267  
C53      C      0.119500000000     0.463960000000     0.995170000000     0.242974   
C54      C      0.265790000000     0.474050000000     0.017430000000    -0.0377376  
C55      C      0.322050000000     0.496620000000     0.995780000000     0.0491458  
C56      C      0.173480000000     0.494980000000     0.994890000000     0.081461   
C57      C      0.531230000000     0.840130000000     0.996330000000    -0.165391   
C58      C      0.498420000000     0.619630000000     0.966500000000     0.0727196  
C59      C      0.496770000000     0.619290000000     0.027240000000     0.0729181  
C60      C      0.498870000000     0.655420000000     0.966250000000    -0.0928409  
C61      C      0.477360000000     0.730160000000     0.019760000000    -0.0380007  
C62      C      0.477820000000     0.765980000000     0.019890000000    -0.0289053  
C63      C      0.498720000000     0.711660000000     0.997410000000    -0.00427087 
C64      C      0.497020000000     0.655080000000     0.027910000000    -0.0927431  
C65      C      0.499780000000     0.784090000000     0.997810000000    -0.0190257  
C66      C      0.469760000000     0.840840000000     0.999420000000    -0.112691   
C67      C      0.521220000000     0.765580000000     0.975540000000    -0.0289062  
C68      C      0.470620000000     0.876590000000     0.999260000000     0.0826458  
C69      C      0.531420000000     0.876020000000     0.996180000000     0.24273    
C70      C      0.520630000000     0.729770000000     0.975280000000    -0.0380183  
C71      C      0.498170000000     0.673590000000     0.997190000000     0.0491415  
C72      C      0.500260000000     0.822160000000     0.997910000000     0.0816737  
C73      C      0.466540000000     0.155930000000     0.994350000000    -0.165213   
C74      C      0.497390000000     0.376770000000     0.965330000000     0.0727903  
C75      C      0.498730000000     0.376630000000     0.026080000000     0.0729385  
C76      C      0.497400000000     0.340970000000     0.964800000000    -0.0926966  
C77      C      0.519560000000     0.266150000000     0.018050000000    -0.0377882  
C78      C      0.519420000000     0.230340000000     0.018160000000    -0.028831   
C79      C      0.498200000000     0.284490000000     0.995560000000    -0.0042653  
C80      C      0.498920000000     0.340840000000     0.026460000000    -0.092766   
C81      C      0.497800000000     0.212050000000     0.995890000000    -0.0187627  
C82      C      0.527960000000     0.155380000000     0.998300000000    -0.112085   
C83      C      0.476450000000     0.230390000000     0.973380000000    -0.0288125  
C84      C      0.527180000000     0.119630000000     0.998490000000     0.0836904  
C85      C      0.466420000000     0.120040000000     0.994530000000     0.243523   
C86      C      0.476710000000     0.266200000000     0.973170000000    -0.0378061  
C87      C      0.498210000000     0.322560000000     0.995600000000     0.0492359  
C88      C      0.497440000000     0.173980000000     0.996190000000     0.0820174  
C89      C      0.529650000000     0.999330000000     0.839440000000    -0.165284   
C90      C      0.495340000000     0.966540000000     0.619380000000     0.0728269  
C91      C      0.496900000000     0.027280000000     0.618750000000     0.0729356  
C92      C      0.495400000000     0.966450000000     0.655170000000    -0.0927031  
C93      C      0.475280000000     0.975670000000     0.729960000000    -0.0379993  
C94      C      0.475730000000     0.975860000000     0.765770000000    -0.0295499  
C95      C      0.496700000000     0.997810000000     0.711260000000    -0.00446846 
C96      C      0.497170000000     0.028100000000     0.654540000000    -0.0926844  
C97      C      0.497750000000     0.998040000000     0.783690000000    -0.0189722  
C98      C      0.468190000000     0.996330000000     0.840710000000    -0.11252    
C99      C      0.519150000000     0.020190000000     0.765000000000    -0.0290954  
C100     C      0.469380000000     0.996310000000     0.876460000000     0.0819922  
C101     C      0.530200000000     0.998910000000     0.875330000000     0.242304   
C102     C      0.518570000000     0.020140000000     0.729180000000    -0.0377054  
C103     C      0.496380000000     0.997460000000     0.673200000000     0.0491684  
C104     C      0.498520000000     0.997940000000     0.821760000000     0.0812552  
C105     C      0.496680000000     0.964570000000     0.339480000000    -0.165243   
C106     C      0.467360000000     0.998900000000     0.118800000000     0.0738661  
C107     C      0.528110000000     0.997750000000     0.119350000000     0.0740833  
C108     C      0.466580000000     0.998830000000     0.154600000000    -0.0922493  
C109     C      0.474600000000     0.018960000000     0.229690000000    -0.0378533  
C110     C      0.474340000000     0.018500000000     0.265510000000    -0.0292834  
C111     C      0.496920000000     0.997500000000     0.211270000000    -0.00416673 
C112     C      0.528240000000     0.997440000000     0.155140000000    -0.0922139  
C113     C      0.496230000000     0.996390000000     0.283690000000    -0.0189454  
C114     C      0.494520000000     0.026070000000     0.340640000000    -0.11234    
C115     C      0.518500000000     0.974890000000     0.265260000000    -0.028873   
C116     C      0.494430000000     0.024940000000     0.376390000000     0.0827316  
C117     C      0.496140000000     0.964090000000     0.375370000000     0.242935   
C118     C      0.518920000000     0.975520000000     0.229450000000    -0.0376909  
C119     C      0.497250000000     0.997980000000     0.173210000000     0.04962    
C120     C      0.495800000000     0.995680000000     0.321740000000     0.0815166  
C121     C      0.029350000000     0.495990000000     0.652310000000    -0.165067   
C122     C      0.998920000000     0.526810000000     0.872960000000     0.0734483  
C123     C      0.995860000000     0.466120000000     0.873260000000     0.0729941  
C124     C      0.999060000000     0.527090000000     0.837160000000    -0.0924915  
C125     C      0.019850000000     0.517650000000     0.762580000000    -0.0375831  
C126     C      0.020140000000     0.517360000000     0.726770000000    -0.0289906  
C127     C      0.997630000000     0.496000000000     0.780900000000    -0.0043279  
C128     C      0.995790000000     0.465490000000     0.837460000000    -0.0926865  
C129     C      0.998090000000     0.495530000000     0.708450000000    -0.0188009  
C130     C      0.967830000000     0.494150000000     0.651790000000    -0.112349   
C131     C      0.975780000000     0.473970000000     0.726760000000    -0.0293883  
C132     C      0.968590000000     0.494100000000     0.616040000000     0.0827787  
C133     C      0.029450000000     0.495560000000     0.616420000000     0.243149   
C134     C      0.975610000000     0.474130000000     0.762590000000    -0.03783    
C135     C      0.997470000000     0.496200000000     0.818970000000     0.0494561  
C136     C      0.998420000000     0.495220000000     0.670380000000     0.0814666  
C137     C      0.964120000000     0.496520000000     0.336560000000    -0.165299   
C138     C      0.995830000000     0.467110000000     0.115920000000     0.0735832  
C139     C      0.998930000000     0.527800000000     0.115810000000     0.0728905  
C140     C      0.995390000000     0.466730000000     0.151700000000    -0.092533   
C141     C      0.973920000000     0.475900000000     0.226080000000    -0.0377179  
C142     C      0.973440000000     0.475900000000     0.261890000000    -0.0290336  
C143     C      0.996330000000     0.497600000000     0.208060000000    -0.00436181 
C144     C      0.998710000000     0.528330000000     0.151610000000    -0.0927324  
C145     C      0.995490000000     0.497480000000     0.280490000000    -0.0189136  
C146     C      0.025650000000     0.498020000000     0.337190000000    -0.112467   
C147     C      0.017950000000     0.519150000000     0.262470000000    -0.0293779  
C148     C      0.024840000000     0.497660000000     0.372930000000     0.0828478  
C149     C      0.963970000000     0.496540000000     0.372450000000     0.243029   
C150     C      0.018300000000     0.519280000000     0.226660000000    -0.0378286  
C151     C      0.996830000000     0.497570000000     0.170000000000     0.0494003  
C152     C      0.995090000000     0.497340000000     0.318550000000     0.0815227  
C153     C      0.153590000000     0.993950000000     0.532340000000    -0.164808   
C154     C      0.374330000000     0.025950000000     0.497600000000     0.072733   
C155     C      0.374300000000     0.965220000000     0.499510000000     0.0724543  
C156     C      0.338550000000     0.026450000000     0.498010000000    -0.0926881  
C157     C      0.263500000000     0.017950000000     0.478550000000    -0.0378491  
C158     C      0.227690000000     0.017910000000     0.479010000000    -0.0288352  
C159     C      0.282120000000     0.995700000000     0.499920000000    -0.0043334  
C160     C      0.338510000000     0.964800000000     0.500100000000    -0.0928333  
C161     C      0.209680000000     0.995750000000     0.500980000000    -0.0187955  
C162     C      0.152980000000     0.997210000000     0.470880000000    -0.112459   
C163     C      0.228290000000     0.973580000000     0.522440000000    -0.0289813  
C164     C      0.117230000000     0.997000000000     0.471680000000     0.0831257  
C165     C      0.117690000000     0.993750000000     0.532470000000     0.243367   
C166     C      0.264110000000     0.973500000000     0.521850000000    -0.0378623  
C167     C      0.320180000000     0.995650000000     0.499330000000     0.0490298  
C168     C      0.171610000000     0.995670000000     0.501410000000     0.0818277  
C169     C      0.837970000000     0.993650000000     0.466670000000    -0.165273   
C170     C      0.617080000000     0.025900000000     0.497870000000     0.0733023  
C171     C      0.617080000000     0.965130000000     0.497230000000     0.0737397  
C172     C      0.652870000000     0.026350000000     0.498060000000    -0.0924772  
C173     C      0.727600000000     0.018100000000     0.519000000000    -0.0377749  
C174     C      0.763420000000     0.018070000000     0.519030000000    -0.0287213  
C175     C      0.709280000000     0.995510000000     0.497720000000    -0.0040654  
C176     C      0.652870000000     0.964680000000     0.497230000000    -0.0923193  
C177     C      0.781720000000     0.995580000000     0.497630000000    -0.0187926  
C178     C      0.838260000000     0.997670000000     0.528090000000    -0.112084   
C179     C      0.763400000000     0.973030000000     0.476330000000    -0.0285878  
C180     C      0.874030000000     0.997530000000     0.527480000000     0.0834382  
C181     C      0.873860000000     0.993540000000     0.466730000000     0.243343   
C182     C      0.727590000000     0.972940000000     0.476430000000    -0.0377641  
C183     C      0.671210000000     0.995510000000     0.497690000000     0.0494722  
C184     C      0.819790000000     0.995670000000     0.497480000000     0.0819965  
C185     C      0.994030000000     0.837390000000     0.529510000000    -0.165226   
C186     C      0.965400000000     0.616890000000     0.496730000000     0.0729169  
C187     C      0.026100000000     0.617350000000     0.493900000000     0.0734037  
C188     C      0.964680000000     0.652680000000     0.497050000000    -0.0926377  
C189     C      0.973080000000     0.727250000000     0.518300000000    -0.0376203  
C190     C      0.973080000000     0.763060000000     0.518970000000    -0.029085   
C191     C      0.995100000000     0.709340000000     0.496110000000    -0.00435539 
C192     C      0.026290000000     0.653150000000     0.494040000000    -0.0923618  
C193     C      0.994990000000     0.781790000000     0.497350000000    -0.0188734  
C194     C      0.996680000000     0.838970000000     0.468040000000    -0.112442   
C195     C      0.016870000000     0.763890000000     0.475000000000    -0.0295291  
C196     C      0.996800000000     0.874710000000     0.469410000000     0.0820347  
C197     C      0.994520000000     0.873270000000     0.530230000000     0.242424   
C198     C      0.016980000000     0.728070000000     0.474450000000    -0.037914   
C199     C      0.995350000000     0.671270000000     0.495680000000     0.0492467  
C200     C      0.995190000000     0.819850000000     0.498280000000     0.0812323  
C201     C      0.997480000000     0.154420000000     0.528280000000    -0.164702   
C202     C      0.027880000000     0.374520000000     0.494160000000     0.0729974  
C203     C      0.967120000000     0.374160000000     0.493040000000     0.0734448  
C204     C      0.028530000000     0.338720000000     0.494330000000    -0.0926106  
C205     C      0.019990000000     0.264220000000     0.516290000000    -0.0374257  
C206     C      0.019730000000     0.228410000000     0.517150000000    -0.0290558  
C207     C      0.997960000000     0.282160000000     0.494130000000    -0.00440236 
C208     C      0.966870000000     0.338370000000     0.492940000000    -0.0924704  
C209     C      0.997600000000     0.209750000000     0.495700000000    -0.0185692  
C210     C      0.995990000000     0.152390000000     0.466790000000    -0.111978   
C211     C      0.975800000000     0.227670000000     0.473310000000    -0.0293697  
C212     C      0.995620000000     0.116660000000     0.468440000000     0.0838722  
C213     C      0.996660000000     0.118560000000     0.529280000000     0.243905   
C214     C      0.975880000000     0.263490000000     0.472630000000    -0.0376704  
C215     C      0.997800000000     0.320210000000     0.493700000000     0.0494565  
C216     C      0.997060000000     0.171710000000     0.496910000000     0.0819589  
Cu1      Cu     0.996490000000     0.995670000000     0.468210000000     0.84901    
Cu2      Cu     0.994920000000     0.995930000000     0.531260000000     0.858886   
Cu3      Cu     0.965100000000     0.495480000000     0.495200000000     0.85035    
Cu4      Cu     0.028230000000     0.495990000000     0.493710000000     0.850481   
Cu5      Cu     0.495690000000     0.963930000000     0.498080000000     0.851371   
Cu6      Cu     0.495690000000     0.027110000000     0.497300000000     0.846062   
Cu7      Cu     0.530510000000     0.998770000000     0.998030000000     0.854956   
Cu8      Cu     0.467420000000     0.997380000000     0.997350000000     0.849781   
Cu9      Cu     0.996660000000     0.465480000000     0.994650000000     0.8506     
Cu10     Cu     0.998450000000     0.528610000000     0.994340000000     0.850451   
Cu11     Cu     0.497550000000     0.497890000000     0.027800000000     0.846794   
Cu12     Cu     0.497590000000     0.498260000000     0.964570000000     0.847073   
H1       H      0.605720000000     0.500130000000     0.941290000000     0.0259871  
H2       H      0.888870000000     0.444930000000     0.996620000000     0.0241442  
H3       H      0.715740000000     0.538280000000     0.956800000000     0.0394563  
H4       H      0.779010000000     0.460410000000     0.034940000000     0.0363067  
H5       H      0.827030000000     0.444380000000     0.996850000000     0.0581303  
H6       H      0.716430000000     0.459840000000     0.034940000000     0.038967   
H7       H      0.826330000000     0.554660000000     0.993880000000     0.0816121  
H8       H      0.667820000000     0.500270000000     0.940770000000     0.0533716  
H9       H      0.668070000000     0.497300000000     0.051260000000     0.0532433  
H10      H      0.778290000000     0.538240000000     0.956200000000     0.0388437  
H11      H      0.605930000000     0.496880000000     0.050990000000     0.0259681  
H12      H      0.894900000000     0.568280000000     0.017750000000     0.152819   
H13      H      0.389160000000     0.495430000000     0.050850000000     0.0259861  
H14      H      0.106090000000     0.549330000000     0.992920000000     0.0240811  
H15      H      0.279250000000     0.456780000000     0.034490000000     0.0395099  
H16      H      0.216300000000     0.534490000000     0.955940000000     0.0362123  
H17      H      0.167880000000     0.550110000000     0.993450000000     0.0580231  
H18      H      0.278830000000     0.535530000000     0.956670000000     0.0389095  
H19      H      0.169000000000     0.439830000000     0.996200000000     0.0815894  
H20      H      0.327020000000     0.494870000000     0.051040000000     0.0533277  
H21      H      0.327370000000     0.498480000000     0.940560000000     0.05317    
H22      H      0.216670000000     0.456360000000     0.034380000000     0.0388454  
H23      H      0.389460000000     0.499330000000     0.941180000000     0.0259272  
H24      H      0.100710000000     0.426030000000     0.971440000000     0.152648   
H25      H      0.496050000000     0.606020000000     0.051640000000     0.0260597  
H26      H      0.446170000000     0.889760000000     0.000430000000     0.0240985  
H27      H      0.537630000000     0.716250000000     0.957990000000     0.0391707  
H28      H      0.461210000000     0.779500000000     0.037550000000     0.0368979  
H29      H      0.445190000000     0.827940000000     0.000280000000     0.0579901  
H30      H      0.459970000000     0.716960000000     0.036900000000     0.0391031  
H31      H      0.555390000000     0.826470000000     0.995490000000     0.08204    
H32      H      0.496820000000     0.668120000000     0.052410000000     0.0535088  
H33      H      0.499350000000     0.668750000000     0.941900000000     0.0530033  
H34      H      0.538200000000     0.778800000000     0.957990000000     0.0365329  
H35      H      0.498920000000     0.606640000000     0.941940000000     0.025843   
H36      H      0.567400000000     0.894960000000     0.969700000000     0.151475   
H37      H      0.499170000000     0.389690000000     0.050600000000     0.0259866  
H38      H      0.551620000000     0.106510000000     0.000130000000     0.0259504  
H39      H      0.459730000000     0.279580000000     0.955750000000     0.0392827  
H40      H      0.535950000000     0.216960000000     0.036010000000     0.0370409  
H41      H      0.552490000000     0.168340000000     0.999390000000     0.0587541  
H42      H      0.536650000000     0.279500000000     0.035390000000     0.0391417  
H43      H      0.442350000000     0.169520000000     0.993070000000     0.0820483  
H44      H      0.499140000000     0.327620000000     0.050870000000     0.0534004  
H45      H      0.497220000000     0.327830000000     0.940340000000     0.0532452  
H46      H      0.459750000000     0.217040000000     0.955680000000     0.0369858  
H47      H      0.496860000000     0.389970000000     0.940880000000     0.0259883  
H48      H      0.430820000000     0.100800000000     0.967760000000     0.152597   
H49      H      0.497410000000     0.051630000000     0.605360000000     0.026016   
H50      H      0.445060000000     0.995260000000     0.889860000000     0.0239139  
H51      H      0.535590000000     0.037290000000     0.715520000000     0.0394175  
H52      H      0.459150000000     0.958280000000     0.779440000000     0.0361185  
H53      H      0.443500000000     0.995570000000     0.828030000000     0.0579577  
H54      H      0.457920000000     0.958390000000     0.716900000000     0.0389381  
H55      H      0.553700000000     0.000140000000     0.825560000000     0.0815497  
H56      H      0.497560000000     0.052660000000     0.667480000000     0.0533563  
H57      H      0.495180000000     0.942150000000     0.668610000000     0.0531879  
H58      H      0.536160000000     0.037810000000     0.778070000000     0.0387142  
H59      H      0.494710000000     0.941920000000     0.606510000000     0.0262192  
H60      H      0.568720000000     0.975820000000     0.893690000000     0.152039   
H61      H      0.552720000000     0.997380000000     0.106450000000     0.02824    
H62      H      0.493670000000     0.049290000000     0.389750000000     0.0238858  
H63      H      0.536200000000     0.958460000000     0.215990000000     0.0402033  
H64      H      0.456700000000     0.035160000000     0.278990000000     0.036386   
H65      H      0.494140000000     0.050740000000     0.327900000000     0.0581706  
H66      H      0.457560000000     0.036390000000     0.216400000000     0.0395858  
H67      H      0.497240000000     0.940500000000     0.325640000000     0.0816717  
H68      H      0.552550000000     0.997170000000     0.168560000000     0.0542971  
H69      H      0.442040000000     0.998920000000     0.167580000000     0.0538732  
H70      H      0.535890000000     0.957800000000     0.278540000000     0.0390761  
H71      H      0.443000000000     0.999380000000     0.105440000000     0.0277855  
H72      H      0.472520000000     0.925880000000     0.393730000000     0.152459   
H73      H      0.994680000000     0.441720000000     0.886510000000     0.0262707  
H74      H      0.944090000000     0.493500000000     0.602940000000     0.0241967  
H75      H      0.957970000000     0.457380000000     0.775950000000     0.0393553  
H76      H      0.037410000000     0.534500000000     0.713400000000     0.0388412  
H77      H      0.943290000000     0.493880000000     0.664770000000     0.0582683  
H78      H      0.037350000000     0.534570000000     0.775940000000     0.0394092  
H79      H      0.053580000000     0.496360000000     0.665900000000     0.0814669  
H80      H      0.994920000000     0.441010000000     0.824400000000     0.0533896  
H81      H      0.999980000000     0.551430000000     0.823860000000     0.0540534  
H82      H      0.958690000000     0.456640000000     0.713400000000     0.036423   
H83      H      0.000080000000     0.551330000000     0.885970000000     0.0277228  
H84      H      0.067300000000     0.471750000000     0.597580000000     0.152484   
H85      H      0.000240000000     0.552230000000     0.102630000000     0.0261949  
H86      H      0.049330000000     0.497990000000     0.386060000000     0.0241227  
H87      H      0.036070000000     0.536070000000     0.213520000000     0.0391993  
H88      H      0.956060000000     0.458690000000     0.275020000000     0.0387864  
H89      H      0.050210000000     0.498290000000     0.324250000000     0.0582217  
H90      H      0.956460000000     0.459140000000     0.212480000000     0.0394119  
H91      H      0.939920000000     0.496410000000     0.322930000000     0.0814831  
H92      H      0.999510000000     0.552760000000     0.164760000000     0.0532334  
H93      H      0.994340000000     0.442350000000     0.164930000000     0.054042   
H94      H      0.035030000000     0.536290000000     0.276080000000     0.0362314  
H95      H      0.994750000000     0.442620000000     0.102840000000     0.0276777  
H96      H      0.926190000000     0.520310000000     0.391500000000     0.152559   
H97      H      0.387410000000     0.940730000000     0.500040000000     0.0259065  
H98      H      0.104110000000     0.998230000000     0.447210000000     0.0242285  
H99      H      0.277710000000     0.956280000000     0.538860000000     0.0391542  
H100     H      0.214100000000     0.035510000000     0.462400000000     0.037195   
H101     H      0.165910000000     0.998140000000     0.446330000000     0.0580287  
H102     H      0.276620000000     0.035130000000     0.461140000000     0.0390704  
H103     H      0.167210000000     0.993070000000     0.556530000000     0.0824426  
H104     H      0.325300000000     0.940390000000     0.500710000000     0.0529928  
H105     H      0.325390000000     0.050900000000     0.497770000000     0.0534668  
H106     H      0.215160000000     0.955980000000     0.539410000000     0.0366531  
H107     H      0.387480000000     0.050420000000     0.496720000000     0.0259792  
H108     H      0.098700000000     0.967140000000     0.568330000000     0.151464   
H109     H      0.603940000000     0.940640000000     0.497000000000     0.0278403  
H110     H      0.887040000000     0.999090000000     0.551980000000     0.0258207  
H111     H      0.714230000000     0.955440000000     0.459520000000     0.0399484  
H112     H      0.776800000000     0.035950000000     0.535520000000     0.0370142  
H113     H      0.825180000000     0.998900000000     0.552550000000     0.058816   
H114     H      0.714230000000     0.035580000000     0.535920000000     0.0392886  
H115     H      0.824490000000     0.992450000000     0.442420000000     0.0821703  
H116     H      0.666050000000     0.940240000000     0.497320000000     0.0539593  
H117     H      0.666060000000     0.050780000000     0.498020000000     0.053567   
H118     H      0.776760000000     0.955170000000     0.459800000000     0.0371985  
H119     H      0.603950000000     0.050390000000     0.498050000000     0.0261887  
H120     H      0.893040000000     0.966540000000     0.431260000000     0.152662   
H121     H      0.050660000000     0.604410000000     0.492750000000     0.0274834  
H122     H      0.997750000000     0.888230000000     0.445150000000     0.0238728  
H123     H      0.034000000000     0.715030000000     0.456820000000     0.0388014  
H124     H      0.955690000000     0.776100000000     0.536240000000     0.0388722  
H125     H      0.997260000000     0.826410000000     0.443280000000     0.0578209  
H126     H      0.956140000000     0.713570000000     0.535520000000     0.0397464  
H127     H      0.993340000000     0.823410000000     0.553490000000     0.0817223  
H128     H      0.050610000000     0.666510000000     0.493360000000     0.0536548  
H129     H      0.940170000000     0.665680000000     0.497950000000     0.0534094  
H130     H      0.034260000000     0.777560000000     0.458240000000     0.0361095  
H131     H      0.941040000000     0.603570000000     0.497710000000     0.0262325  
H132     H      0.017900000000     0.891390000000     0.568710000000     0.152238   
H133     H      0.942560000000     0.387150000000     0.492630000000     0.0277623  
H134     H      0.995030000000     0.102950000000     0.444270000000     0.0257498  
H135     H      0.958830000000     0.276590000000     0.455070000000     0.0397997  
H136     H      0.037040000000     0.215320000000     0.534450000000     0.0395489  
H137     H      0.995940000000     0.164780000000     0.441940000000     0.0589455  
H138     H      0.037090000000     0.277890000000     0.533370000000     0.0395958  
H139     H      0.997870000000     0.168620000000     0.552160000000     0.0822484  
H140     H      0.942520000000     0.325040000000     0.492810000000     0.0539421  
H141     H      0.053020000000     0.325640000000     0.494570000000     0.0536376  
H142     H      0.958280000000     0.214000000000     0.456670000000     0.0371262  
H143     H      0.052280000000     0.387800000000     0.494590000000     0.0262093  
H144     H      0.972500000000     0.100950000000     0.567500000000     0.153342   
N1       N      0.893780000000     0.499850000000     0.995020000000    -0.220469   
N2       N      0.601150000000     0.498490000000     0.996150000000    -0.193564   
N3       N      0.101340000000     0.494380000000     0.994360000000    -0.220543   
N4       N      0.393980000000     0.497430000000     0.996030000000    -0.19351    
N5       N      0.501090000000     0.894290000000     0.997770000000    -0.220541   
N6       N      0.497480000000     0.601660000000     0.996770000000    -0.193519   
N7       N      0.496760000000     0.101850000000     0.996750000000    -0.220135   
N8       N      0.497990000000     0.394500000000     0.995750000000    -0.193583   
N9       N      0.500030000000     0.997660000000     0.893880000000    -0.220594   
N10      N      0.496050000000     0.996730000000     0.601260000000    -0.193573   
N11      N      0.495300000000     0.994310000000     0.393880000000    -0.220547   
N12      N      0.497900000000     0.998350000000     0.101270000000    -0.192933   
N13      N      0.999040000000     0.494900000000     0.598240000000    -0.220544   
N14      N      0.997390000000     0.496550000000     0.890910000000    -0.193281   
N15      N      0.994360000000     0.496870000000     0.390680000000    -0.220524   
N16      N      0.997490000000     0.497420000000     0.098070000000    -0.193328   
N17      N      0.099480000000     0.995440000000     0.502120000000    -0.220204   
N18      N      0.392120000000     0.995570000000     0.498340000000    -0.193713   
N19      N      0.891930000000     0.995610000000     0.497150000000    -0.220202   
N20      N      0.599270000000     0.995510000000     0.497510000000    -0.193206   
N21      N      0.995660000000     0.891980000000     0.500150000000    -0.220558   
N22      N      0.995880000000     0.599320000000     0.495220000000    -0.193242   
N23      N      0.996010000000     0.099620000000     0.499320000000    -0.219833   
N24      N      0.997400000000     0.392150000000     0.493660000000    -0.193255   
O1       O      0.996210000000     0.047690000000     0.471070000000    -0.396785   
O2       O      0.996610000000     0.943680000000     0.471500000000    -0.39996    
O3       O      0.944500000000     0.995450000000     0.469930000000    -0.38533    
O4       O      0.048340000000     0.995870000000     0.472550000000    -0.40007    
O5       O      0.046960000000     0.995550000000     0.529500000000    -0.382856   
O6       O      0.943010000000     0.996240000000     0.526870000000    -0.397701   
O7       O      0.994660000000     0.943980000000     0.528430000000    -0.386264   
O8       O      0.995370000000     0.047840000000     0.528030000000    -0.383613   
O9       O      0.968510000000     0.443550000000     0.494480000000    -0.395605   
O10      O      0.967740000000     0.547470000000     0.495720000000    -0.397567   
O11      O      0.966960000000     0.496070000000     0.443180000000    -0.385576   
O12      O      0.969440000000     0.494900000000     0.547090000000    -0.399802   
O13      O      0.026390000000     0.495680000000     0.545720000000    -0.385493   
O14      O      0.023920000000     0.496340000000     0.441840000000    -0.39994    
O15      O      0.024810000000     0.547930000000     0.494060000000    -0.395435   
O16      O      0.025590000000     0.443970000000     0.493510000000    -0.397481   
O17      O      0.547660000000     0.966970000000     0.497860000000    -0.395301   
O18      O      0.443720000000     0.966990000000     0.498250000000    -0.398059   
O19      O      0.495560000000     0.966380000000     0.446090000000    -0.385711   
O20      O      0.495810000000     0.967600000000     0.549980000000    -0.397944   
O21      O      0.495950000000     0.024700000000     0.549320000000    -0.397326   
O22      O      0.495430000000     0.023350000000     0.445350000000    -0.39946    
O23      O      0.443740000000     0.024080000000     0.497550000000    -0.398033   
O24      O      0.547660000000     0.024060000000     0.497170000000    -0.397223   
O25      O      0.526940000000     0.998630000000     0.049950000000    -0.395466   
O26      O      0.528010000000     0.998760000000     0.946050000000    -0.386062   
O27      O      0.526270000000     0.050670000000     0.997990000000    -0.397412   
O28      O      0.528590000000     0.946750000000     0.997910000000    -0.385327   
O29      O      0.471630000000     0.945500000000     0.997860000000    -0.40033    
O30      O      0.469330000000     0.049370000000     0.996830000000    -0.385054   
O31      O      0.471080000000     0.996960000000     0.945400000000    -0.400248   
O32      O      0.469870000000     0.997940000000     0.049360000000    -0.395095   
O33      O      0.996800000000     0.468730000000     0.046570000000    -0.39586    
O34      O      0.996610000000     0.468270000000     0.942670000000    -0.397811   
O35      O      0.048730000000     0.467130000000     0.994580000000    -0.385178   
O36      O      0.944800000000     0.470030000000     0.994800000000    -0.399894   
O37      O      0.946420000000     0.526980000000     0.994440000000    -0.385669   
O38      O      0.050280000000     0.524080000000     0.994230000000    -0.400262   
O39      O      0.998300000000     0.525330000000     0.942380000000    -0.395496   
O40      O      0.998480000000     0.525790000000     0.046350000000    -0.397624   
O41      O      0.497890000000     0.445980000000     0.024490000000    -0.398009   
O42      O      0.497240000000     0.549880000000     0.025020000000    -0.397618   
O43      O      0.445560000000     0.497550000000     0.024690000000    -0.397245   
O44      O      0.549550000000     0.498180000000     0.024750000000    -0.397325   
O45      O      0.549530000000     0.498380000000     0.967650000000    -0.397995   
O46      O      0.445640000000     0.498150000000     0.967590000000    -0.397877   
O47      O      0.497540000000     0.550210000000     0.967920000000    -0.397832   
O48      O      0.497670000000     0.446240000000     0.967390000000    -0.397432   
O49      O      0.892050000000     0.561510000000     0.993410000000    -0.294166   
O50      O      0.103270000000     0.432740000000     0.995840000000    -0.294028   
O51      O      0.562660000000     0.892150000000     0.994520000000    -0.293321   
O52      O      0.435230000000     0.103840000000     0.992620000000    -0.293838   
O53      O      0.561620000000     0.000100000000     0.891150000000    -0.293607   
O54      O      0.496900000000     0.932680000000     0.391240000000    -0.294097   
O55      O      0.060690000000     0.496160000000     0.600220000000    -0.294206   
O56      O      0.932710000000     0.495900000000     0.388620000000    -0.294234   
O57      O      0.101500000000     0.991980000000     0.563670000000    -0.29068    
O58      O      0.890190000000     0.991430000000     0.435610000000    -0.293881   
O59      O      0.993560000000     0.888930000000     0.561740000000    -0.293238   
O60      O      0.996970000000     0.103140000000     0.560920000000    -0.29104    


