data_structure

_audit_creation_method RASPA-1.0
_audit_creation_date 2023-6-4
_audit_author_name 'Poobodin Mano'

_cell_length_a    26.3835
_cell_length_b    27.2009
_cell_length_c    38.4907
_cell_angle_alpha 89.9988
_cell_angle_beta  89.9988
_cell_angle_gamma 93.651
_cell_volume      27567

_symmetry_cell_setting          triclinic
_symmetry_space_group_name_Hall 'P 1'
_symmetry_space_group_name_H-M  'P 1'
_symmetry_Int_Tables_number     1

_symmetry_equiv_pos_as_xyz 'x,y,z'

loop_
_atom_site_label
_atom_site_type_symbol
_atom_site_fract_x
_atom_site_fract_y
_atom_site_fract_z
_atom_site_charge
C1       C      0.064170000000     0.914290000000     0.006890000000     0.39883    
C2       C      0.931680000000     0.056630000000     0.003790000000     0.408489   
C3       C      0.073800000000     0.052470000000     0.016440000000     0.412519   
C4       C      0.922590000000     0.918410000000     0.994540000000     0.420505   
C5       C      0.071980000000     0.918250000000     0.500480000000     0.407772   
C6       C      0.944280000000     0.064780000000     0.503750000000     0.399819   
C7       C      0.086680000000     0.055680000000     0.492390000000     0.420997   
C8       C      0.929850000000     0.927080000000     0.511940000000     0.41156    
C9       C      0.490680000000     0.481640000000     0.937860000000     0.486307   
C10      C      0.506940000000     0.490180000000     0.070180000000     0.483026   
C11      C      0.565650000000     0.420840000000     0.003470000000     0.468478   
C12      C      0.429970000000     0.548930000000     0.006930000000     0.475767   
C13      C      0.516130000000     0.495200000000     0.437830000000     0.477453   
C14      C      0.498410000000     0.486470000000     0.569830000000     0.476736   
C15      C      0.575370000000     0.426320000000     0.505690000000     0.477441   
C16      C      0.439860000000     0.554500000000     0.501750000000     0.465767   
C17      C      0.451800000000     0.448570000000     0.848190000000    -0.16528    
C18      C      0.527230000000     0.515070000000     0.625270000000     0.0782002  
C19      C      0.460420000000     0.452750000000     0.621590000000     0.0781512  
C20      C      0.525540000000     0.513240000000     0.661470000000    -0.0934184  
C21      C      0.534760000000     0.479340000000     0.735920000000    -0.0376403  
C22      C      0.533890000000     0.478710000000     0.772180000000    -0.0286078  
C23      C      0.489290000000     0.477610000000     0.716800000000    -0.00423159 
C24      C      0.457560000000     0.450120000000     0.657840000000    -0.0941782  
C25      C      0.487520000000     0.476480000000     0.790300000000    -0.0187494  
C26      C      0.522070000000     0.509160000000     0.846950000000    -0.114312   
C27      C      0.441960000000     0.473770000000     0.771190000000    -0.0285429  
C28      C      0.522050000000     0.509840000000     0.883150000000     0.0874466  
C29      C      0.452370000000     0.450150000000     0.884620000000     0.246191   
C30      C      0.442850000000     0.474260000000     0.734830000000    -0.0376248  
C31      C      0.490660000000     0.480330000000     0.678240000000     0.0508953  
C32      C      0.487020000000     0.478020000000     0.828950000000     0.0827832  
C33      C      0.483350000000     0.463860000000     0.163000000000    -0.168436   
C34      C      0.551500000000     0.530440000000     0.385650000000     0.0759958  
C35      C      0.487370000000     0.465450000000     0.382730000000     0.0766463  
C36      C      0.553080000000     0.533300000000     0.349330000000    -0.0952912  
C37      C      0.565570000000     0.510200000000     0.271650000000    -0.0381828  
C38      C      0.564610000000     0.509520000000     0.235260000000    -0.029174   
C39      C      0.520110000000     0.504760000000     0.290780000000    -0.0051919  
C40      C      0.487880000000     0.467390000000     0.346560000000    -0.0960353  
C41      C      0.518200000000     0.503360000000     0.217320000000    -0.0198463  
C42      C      0.547580000000     0.529990000000     0.157590000000    -0.114706   
C43      C      0.472800000000     0.499680000000     0.236510000000    -0.0292577  
C44      C      0.543870000000     0.525990000000     0.121430000000     0.0853223  
C45      C      0.480120000000     0.460760000000     0.126810000000     0.245802   
C46      C      0.473740000000     0.500370000000     0.272730000000    -0.0382873  
C47      C      0.520610000000     0.501850000000     0.329350000000     0.050283   
C48      C      0.516640000000     0.499070000000     0.178820000000     0.0826367  
C49      C      0.153870000000     0.821550000000     0.469080000000    -0.161185   
C50      C      0.418380000000     0.638650000000     0.502640000000     0.0741534  
C51      C      0.353080000000     0.575120000000     0.498630000000     0.0740092  
C52      C      0.382390000000     0.674460000000     0.502280000000    -0.0928407  
C53      C      0.297350000000     0.740900000000     0.520850000000    -0.0376948  
C54      C      0.260900000000     0.776310000000     0.520820000000    -0.0299713  
C55      C      0.291280000000     0.698420000000     0.499950000000    -0.00440537 
C56      C      0.316090000000     0.609990000000     0.498130000000    -0.0928     
C57      C      0.217200000000     0.770490000000     0.499820000000    -0.0171784  
C58      C      0.165270000000     0.832410000000     0.530440000000    -0.109309   
C59      C      0.211140000000     0.728040000000     0.478880000000    -0.0299016  
C60      C      0.129420000000     0.868280000000     0.529940000000     0.0791447  
C61      C      0.117910000000     0.857630000000     0.469270000000     0.239176   
C62      C      0.247530000000     0.692540000000     0.478990000000    -0.0378298  
C63      C      0.330320000000     0.660540000000     0.500070000000     0.0480615  
C64      C      0.178300000000     0.808510000000     0.499780000000     0.0773408  
C65      C      0.663950000000     0.618460000000     0.543930000000    -0.167778   
C66      C      0.859250000000     0.879330000000     0.489190000000     0.0748444  
C67      C      0.879200000000     0.874670000000     0.549270000000     0.0747489  
C68      C      0.818810000000     0.844590000000     0.493440000000    -0.0958868  
C69      C      0.720060000000     0.790530000000     0.521080000000    -0.0387917  
C70      C      0.684390000000     0.750590000000     0.520130000000    -0.0291255  
C71      C      0.770560000000     0.783300000000     0.529720000000    -0.00555166 
C72      C      0.839740000000     0.838910000000     0.554250000000    -0.0957824  
C73      C      0.699100000000     0.702730000000     0.526970000000    -0.0196349  
C74      C      0.627260000000     0.658960000000     0.494920000000    -0.110807   
C75      C      0.749560000000     0.696080000000     0.536780000000    -0.0287592  
C76      C      0.593460000000     0.618140000000     0.490610000000     0.0825772  
C77      C      0.630230000000     0.577730000000     0.538190000000     0.246488   
C78      C      0.784930000000     0.736210000000     0.538420000000    -0.0383778  
C79      C      0.809480000000     0.823670000000     0.526070000000     0.0516901  
C80      C      0.662700000000     0.659700000000     0.522130000000     0.0807221  
C81      C      0.635310000000     0.306870000000     0.510140000000    -0.164179   
C82      C      0.895580000000     0.120830000000     0.535730000000     0.0709299  
C83      C      0.890700000000     0.119070000000     0.474340000000     0.0706011  
C84      C      0.860070000000     0.157110000000     0.537030000000    -0.0902358  
C85      C      0.760780000000     0.210200000000     0.531120000000    -0.0379777  
C86      C      0.723950000000     0.245250000000     0.531250000000    -0.0294713  
C87      C      0.801090000000     0.213410000000     0.507100000000    -0.0038037  
C88      C      0.855680000000     0.155770000000     0.474700000000    -0.0906827  
C89      C      0.726720000000     0.284900000000     0.507660000000    -0.0183575  
C90      C      0.699980000000     0.372370000000     0.504330000000    -0.112564   
C91      C      0.767440000000     0.288520000000     0.483970000000    -0.0299473  
C92      C      0.662150000000     0.406350000000     0.504160000000     0.0841772  
C93      C      0.598020000000     0.341570000000     0.509250000000     0.243707   
C94      C      0.803890000000     0.253090000000     0.483530000000    -0.0383094  
C95      C      0.839530000000     0.175150000000     0.506290000000     0.0469256  
C96      C      0.686930000000     0.321860000000     0.507450000000     0.0797829  
C97      C      0.200970000000     0.135970000000     0.508980000000    -0.17031    
C98      C      0.388370000000     0.403910000000     0.467920000000     0.074233   
C99      C      0.420640000000     0.363320000000     0.517000000000     0.0751907  
C100     C      0.354470000000     0.363800000000     0.461070000000    -0.0915788  
C101     C      0.267860000000     0.286170000000     0.465910000000    -0.0384842  
C102     C      0.232540000000     0.246020000000     0.463730000000    -0.0279948  
C103     C      0.317930000000     0.279460000000     0.476550000000    -0.00370334 
C104     C      0.386970000000     0.322730000000     0.511400000000    -0.0891512  
C105     C      0.246690000000     0.198850000000     0.472570000000    -0.0213888  
C106     C      0.174800000000     0.145020000000     0.449510000000    -0.116553   
C107     C      0.297120000000     0.191600000000     0.481480000000    -0.0283477  
C108     C      0.135500000000     0.109350000000     0.455190000000     0.0866223  
C109     C      0.160860000000     0.100980000000     0.514150000000     0.24752    
C110     C      0.332640000000     0.231570000000     0.483120000000    -0.0387161  
C111     C      0.353800000000     0.322400000000     0.482850000000     0.0475064  
C112     C      0.207590000000     0.158630000000     0.476680000000     0.0864448  
C113     C      0.371890000000     0.669390000000     0.007610000000    -0.164479   
C114     C      0.121640000000     0.864170000000     0.977340000000     0.070094   
C115     C      0.109650000000     0.854640000000     0.037940000000     0.0697784  
C116     C      0.156850000000     0.827700000000     0.977300000000    -0.0904182  
C117     C      0.251430000000     0.770930000000     0.987740000000    -0.0380204  
C118     C      0.287460000000     0.735200000000     0.987860000000    -0.0294066  
C119     C      0.207560000000     0.765540000000     0.008580000000    -0.003835   
C120     C      0.144660000000     0.817830000000     0.038800000000    -0.0903281  
C121     C      0.280860000000     0.692810000000     0.008790000000    -0.0182985  
C122     C      0.306180000000     0.604490000000     0.010540000000    -0.111656   
C123     C      0.236890000000     0.687230000000     0.029540000000    -0.0300334  
C124     C      0.343510000000     0.569940000000     0.009990000000     0.0821574  
C125     C      0.408560000000     0.634140000000     0.007380000000     0.242726   
C126     C      0.200860000000     0.723140000000     0.029530000000    -0.038421   
C127     C      0.169130000000     0.803960000000     0.008250000000     0.0462717  
C128     C      0.319990000000     0.655060000000     0.009070000000     0.0789059  
C129     C      0.835740000000     0.825130000000     0.953050000000    -0.170074   
C130     C      0.573270000000     0.610950000000     0.974240000000     0.0761612  
C131     C      0.630770000000     0.571590000000     0.010890000000     0.0754275  
C132     C      0.608630000000     0.650180000000     0.968760000000    -0.0897495  
C133     C      0.679300000000     0.739240000000     0.988650000000    -0.0390729  
C134     C      0.715400000000     0.778770000000     0.987720000000    -0.0281006  
C135     C      0.693250000000     0.691710000000     0.980490000000    -0.00426785 
C136     C      0.667620000000     0.609790000000     0.005680000000    -0.0926894  
C137     C      0.765510000000     0.771200000000     0.978040000000    -0.0220022  
C138     C      0.812990000000     0.834390000000     0.013170000000    -0.117301   
C139     C      0.778980000000     0.724070000000     0.968420000000    -0.0281192  
C140     C      0.852660000000     0.869960000000     0.016850000000     0.0860151  
C141     C      0.874960000000     0.861550000000     0.957290000000     0.245744   
C142     C      0.743060000000     0.684350000000     0.969930000000    -0.0392523  
C143     C      0.656270000000     0.649670000000     0.984620000000     0.0485337  
C144     C      0.804760000000     0.811400000000     0.981170000000     0.0862848  
C145     C      0.844030000000     0.147890000000     0.971900000000    -0.161608   
C146     C      0.586910000000     0.336610000000     0.003150000000     0.0774574  
C147     C      0.652510000000     0.400150000000     0.003950000000     0.0755644  
C148     C      0.622820000000     0.300750000000     0.002820000000    -0.0939763  
C149     C      0.755910000000     0.280940000000     0.025650000000    -0.0376517  
C150     C      0.791830000000     0.244990000000     0.025780000000    -0.0298427  
C151     C      0.713670000000     0.276810000000     0.003250000000    -0.00473714 
C152     C      0.689430000000     0.365200000000     0.004190000000    -0.0934528  
C153     C      0.786930000000     0.204330000000     0.003130000000    -0.0175981  
C154     C      0.843280000000     0.146960000000     0.034180000000    -0.109813   
C155     C      0.744930000000     0.200460000000     0.980520000000    -0.0295411  
C156     C      0.878440000000     0.110420000000     0.033640000000     0.0800797  
C157     C      0.879690000000     0.111580000000     0.972040000000     0.240903   
C158     C      0.708620000000     0.235990000000     0.980760000000    -0.0373825  
C159     C      0.674900000000     0.314700000000     0.003430000000     0.0495325  
C160     C      0.825300000000     0.166060000000     0.003090000000     0.0784074  
C161     C      0.373020000000     0.318040000000     0.996310000000    -0.166349   
C162     C      0.122570000000     0.105430000000     0.054560000000     0.0752197  
C163     C      0.142640000000     0.103250000000     0.994400000000     0.076616   
C164     C      0.161330000000     0.141780000000     0.060130000000    -0.0958784  
C165     C      0.217420000000     0.245560000000     0.044610000000    -0.0379159  
C166     C      0.253410000000     0.285160000000     0.042100000000    -0.0284634  
C167     C      0.230940000000     0.197940000000     0.036530000000    -0.0053957  
C168     C      0.182320000000     0.138570000000     0.999200000000    -0.0955595  
C169     C      0.303410000000     0.277320000000     0.031850000000    -0.0190615  
C170     C      0.341810000000     0.361510000000     0.045900000000    -0.110201   
C171     C      0.317420000000     0.228960000000     0.026200000000    -0.0281881  
C172     C      0.377020000000     0.400380000000     0.038600000000     0.0894534  
C173     C      0.408530000000     0.357200000000     0.990400000000     0.249589   
C174     C      0.281260000000     0.189590000000     0.028140000000    -0.0383143  
C175     C      0.191440000000     0.158310000000     0.032210000000     0.0523073  
C176     C      0.340040000000     0.319410000000     0.024840000000     0.0827377  
Cu1      Cu     0.004370000000     0.989600000000     0.973860000000     0.857878   
Cu2      Cu     0.991870000000     0.981550000000     0.037110000000     0.842793   
Cu3      Cu     0.002260000000     0.988260000000     0.470440000000     0.848177   
Cu4      Cu     0.013900000000     0.994840000000     0.533840000000     0.851065   
Cu5      Cu     0.536040000000     0.522020000000     0.001520000000     1.19074    
Cu6      Cu     0.459940000000     0.448100000000     0.006540000000     1.18774    
Cu7      Cu     0.545750000000     0.527810000000     0.506490000000     1.19036    
Cu8      Cu     0.469890000000     0.453480000000     0.501220000000     1.18795    
H1       H      0.434490000000     0.428370000000     0.606760000000     0.0259887  
H2       H      0.550300000000     0.534580000000     0.895650000000     0.0234302  
H3       H      0.407170000000     0.473320000000     0.720850000000     0.0394354  
H4       H      0.569670000000     0.479770000000     0.786030000000     0.0372033  
H5       H      0.549370000000     0.533380000000     0.833180000000     0.0584757  
H6       H      0.571160000000     0.480940000000     0.722810000000     0.0402321  
H7       H      0.424190000000     0.423790000000     0.835170000000     0.0827646  
H8       H      0.430230000000     0.423920000000     0.669770000000     0.0544856  
H9       H      0.551250000000     0.537870000000     0.676220000000     0.0549421  
H10      H      0.405600000000     0.472530000000     0.784320000000     0.0369499  
H11      H      0.554900000000     0.541150000000     0.613500000000     0.0366221  
H12      H      0.387210000000     0.440700000000     0.905050000000     0.15293    
H13      H      0.461170000000     0.438240000000     0.394800000000     0.023175   
H14      H      0.568330000000     0.551170000000     0.106130000000     0.0226498  
H15      H      0.437990000000     0.497280000000     0.286650000000     0.038122   
H16      H      0.600250000000     0.512210000000     0.221200000000     0.0359619  
H17      H      0.573840000000     0.557850000000     0.168790000000     0.0574069  
H18      H      0.601920000000     0.513380000000     0.284800000000     0.0382892  
H19      H      0.459620000000     0.438470000000     0.178610000000     0.0812279  
H20      H      0.462850000000     0.441680000000     0.332160000000     0.0530119  
H21      H      0.578830000000     0.560630000000     0.337050000000     0.0526368  
H22      H      0.436350000000     0.496070000000     0.223480000000     0.035523   
H23      H      0.576770000000     0.555810000000     0.400200000000     0.0236544  
H24      H      0.413700000000     0.441100000000     0.111760000000     0.148116   
H25      H      0.340060000000     0.536550000000     0.497270000000     0.0251987  
H26      H      0.121170000000     0.885510000000     0.554530000000     0.0247177  
H27      H      0.241590000000     0.660700000000     0.462260000000     0.0381016  
H28      H      0.267370000000     0.808630000000     0.537030000000     0.0365107  
H29      H      0.182330000000     0.823210000000     0.554990000000     0.0568259  
H30      H      0.330100000000     0.746650000000     0.537660000000     0.0386457  
H31      H      0.163020000000     0.804430000000     0.444660000000     0.0800454  
H32      H      0.276440000000     0.597180000000     0.496800000000     0.0524573  
H33      H      0.395540000000     0.712960000000     0.503310000000     0.0524969  
H34      H      0.177860000000     0.721850000000     0.462610000000     0.0361241  
H35      H      0.458080000000     0.651410000000     0.504320000000     0.0247748  
H36      H      0.064990000000     0.845710000000     0.436570000000     0.15143    
H37      H      0.902290000000     0.885500000000     0.571620000000     0.0259435  
H38      H      0.565390000000     0.618090000000     0.470140000000     0.0130755  
H39      H      0.824070000000     0.730120000000     0.544740000000     0.0399018  
H40      H      0.645550000000     0.757130000000     0.513350000000     0.0354804  
H41      H      0.625730000000     0.689420000000     0.476920000000     0.0556901  
H42      H      0.708550000000     0.826880000000     0.514410000000     0.0395304  
H43      H      0.690450000000     0.617740000000     0.565390000000     0.0798789  
H44      H      0.833200000000     0.822970000000     0.579790000000     0.0548541  
H45      H      0.796010000000     0.832980000000     0.471130000000     0.0542415  
H46      H      0.762380000000     0.659710000000     0.541740000000     0.0356602  
H47      H      0.865930000000     0.894230000000     0.463350000000     0.0252067  
H48      H      0.656840000000     0.516450000000     0.548270000000     0.15361    
H49      H      0.901520000000     0.104990000000     0.449240000000     0.0262381  
H50      H      0.674560000000     0.444980000000     0.501830000000     0.0192408  
H51      H      0.834570000000     0.256990000000     0.464840000000     0.0387364  
H52      H      0.693400000000     0.241460000000     0.550040000000     0.0387449  
H53      H      0.739420000000     0.385810000000     0.502480000000     0.0571888  
H54      H      0.757140000000     0.180000000000     0.549480000000     0.0396583  
H55      H      0.623530000000     0.268100000000     0.512310000000     0.0805493  
H56      H      0.840600000000     0.168190000000     0.450270000000     0.0523164  
H57      H      0.849150000000     0.171270000000     0.562050000000     0.0534937  
H58      H      0.770630000000     0.318310000000     0.465270000000     0.0358928  
H59      H      0.910340000000     0.108130000000     0.560200000000     0.0278391  
H60      H      0.536750000000     0.317530000000     0.487820000000     0.152538   
H61      H      0.447070000000     0.363230000000     0.538480000000     0.0250619  
H62      H      0.110360000000     0.100210000000     0.433530000000     0.0236247  
H63      H      0.371280000000     0.225100000000     0.490470000000     0.0396817  
H64      H      0.193520000000     0.252200000000     0.457140000000     0.0373516  
H65      H      0.179210000000     0.162190000000     0.424200000000     0.0595005  
H66      H      0.255230000000     0.322620000000     0.460960000000     0.0384403  
H67      H      0.226060000000     0.146200000000     0.530460000000     0.0843447  
H68      H      0.386850000000     0.292080000000     0.529360000000     0.0542811  
H69      H      0.329750000000     0.364920000000     0.438660000000     0.0507935  
H70      H      0.308580000000     0.155230000000     0.488160000000     0.0372149  
H71      H      0.389370000000     0.435700000000     0.451000000000     0.0145949  
H72      H      0.176260000000     0.049910000000     0.545110000000     0.151537   
H73      H      0.092070000000     0.864290000000     0.062250000000     0.0258601  
H74      H      0.330550000000     0.531320000000     0.010800000000     0.0227798  
H75      H      0.167420000000     0.717330000000     0.045680000000     0.0381454  
H76      H      0.320410000000     0.740690000000     0.971190000000     0.037965   
H77      H      0.266570000000     0.591400000000     0.011420000000     0.056773   
H78      H      0.258390000000     0.803200000000     0.971540000000     0.0390411  
H79      H      0.384470000000     0.708090000000     0.007130000000     0.0799712  
H80      H      0.153120000000     0.801040000000     0.063460000000     0.0518987  
H81      H      0.173970000000     0.817890000000     0.952890000000     0.0524487  
H82      H      0.230580000000     0.655400000000     0.046240000000     0.0352626  
H83      H      0.113620000000     0.881260000000     0.952670000000     0.0269723  
H84      H      0.469360000000     0.655170000000     0.030640000000     0.152067   
H85      H      0.638800000000     0.540940000000     0.027470000000     0.0146409  
H86      H      0.857840000000     0.886640000000     0.042300000000     0.022404   
H87      H      0.754250000000     0.647840000000     0.963380000000     0.0394091  
H88      H      0.704580000000     0.815020000000     0.995260000000     0.0372078  
H89      H      0.789640000000     0.824040000000     0.035490000000     0.0593151  
H90      H      0.641000000000     0.745440000000     0.997000000000     0.0407722  
H91      H      0.829890000000     0.807450000000     0.928010000000     0.083465   
H92      H      0.704080000000     0.608800000000     0.018530000000     0.0522656  
H93      H      0.599010000000     0.680480000000     0.952250000000     0.0553771  
H94      H      0.817710000000     0.717690000000     0.961170000000     0.0367836  
H95      H      0.536580000000     0.610770000000     0.961700000000     0.0262567  
H96      H      0.933010000000     0.850680000000     0.930090000000     0.151801   
H97      H      0.665670000000     0.438730000000     0.004310000000     0.0243967  
H98      H      0.890780000000     0.096890000000     0.058540000000     0.0238578  
H99      H      0.676800000000     0.231780000000     0.963000000000     0.0397741  
H100     H      0.823840000000     0.249340000000     0.043380000000     0.0368137  
H101     H      0.829620000000     0.159590000000     0.058960000000     0.0570305  
H102     H      0.760840000000     0.311680000000     0.043480000000     0.0388147  
H103     H      0.831380000000     0.161990000000     0.947260000000     0.081661   
H104     H      0.729220000000     0.377760000000     0.004420000000     0.0532113  
H105     H      0.609740000000     0.262190000000     0.002640000000     0.0537515  
H106     H      0.739720000000     0.169490000000     0.962910000000     0.0375474  
H107     H      0.547180000000     0.323850000000     0.003110000000     0.0209318  
H108     H      0.872090000000     0.067340000000     0.934160000000     0.154695   
H109     H      0.136340000000     0.089090000000     0.968310000000     0.0271857  
H110     H      0.378300000000     0.432970000000     0.054680000000     0.0120283  
H111     H      0.292110000000     0.152840000000     0.021960000000     0.0402924  
H112     H      0.241390000000     0.321990000000     0.046400000000     0.0358161  
H113     H      0.316860000000     0.364160000000     0.068060000000     0.0570446  
H114     H      0.178430000000     0.252440000000     0.050800000000     0.0402579  
H115     H      0.371520000000     0.286910000000     0.978710000000     0.0822884  
H116     H      0.205020000000     0.151220000000     0.977100000000     0.0563376  
H117     H      0.167720000000     0.156830000000     0.085940000000     0.0544868  
H118     H      0.355990000000     0.221660000000     0.019200000000     0.0368531  
H119     H      0.099710000000     0.093300000000     0.076730000000     0.0253101  
H120     H      0.469920000000     0.337080000000     0.971320000000     0.154628   
N1       N      0.487970000000     0.480330000000     0.902110000000    -0.232771   
N2       N      0.495190000000     0.484820000000     0.605420000000    -0.205328   
N3       N      0.510140000000     0.492040000000     0.105920000000    -0.233607   
N4       N      0.518580000000     0.497000000000     0.402210000000    -0.208036   
N5       N      0.105970000000     0.881460000000     0.499680000000    -0.217347   
N6       N      0.403950000000     0.589230000000     0.500950000000    -0.203709   
N7       N      0.595250000000     0.578720000000     0.512160000000    -0.291322   
N8       N      0.889440000000     0.893920000000     0.516840000000    -0.196433   
N9       N      0.611380000000     0.391450000000     0.506420000000    -0.230803   
N10      N      0.910540000000     0.101530000000     0.504620000000    -0.190464   
N11      N      0.127640000000     0.088400000000     0.487420000000    -0.223942   
N12      N      0.420930000000     0.402620000000     0.495230000000    -0.264522   
N13      N      0.394450000000     0.584260000000     0.008150000000    -0.231079   
N14      N      0.098260000000     0.877840000000     0.007450000000    -0.19083    
N15      N      0.883570000000     0.883570000000     0.989290000000    -0.224191   
N16      N      0.584710000000     0.573010000000     0.995260000000    -0.264579   
N17      N      0.896950000000     0.092710000000     0.002940000000    -0.217434   
N18      N      0.601510000000     0.386050000000     0.003480000000    -0.204118   
N19      N      0.410260000000     0.397180000000     0.011810000000    -0.288881   
N20      N      0.112950000000     0.086880000000     0.021840000000    -0.196276   
O1       O      0.054000000000     0.935400000000     0.978040000000    -0.393496   
O2       O      0.953140000000     0.042940000000     0.975700000000    -0.377605   
O3       O      0.061210000000     0.040110000000     0.985280000000    -0.401475   
O4       O      0.946730000000     0.937860000000     0.968580000000    -0.390098   
O5       O      0.934740000000     0.931410000000     0.025660000000    -0.406383   
O6       O      0.049900000000     0.032880000000     0.042480000000    -0.402716   
O7       O      0.942610000000     0.036360000000     0.032840000000    -0.393799   
O8       O      0.042570000000     0.927420000000     0.035130000000    -0.391078   
O9       O      0.050920000000     0.932510000000     0.472380000000    -0.379219   
O10      O      0.955030000000     0.044620000000     0.474660000000    -0.392439   
O11      O      0.062230000000     0.037660000000     0.466030000000    -0.402681   
O12      O      0.943080000000     0.939880000000     0.480980000000    -0.40325    
O13      O      0.954430000000     0.944920000000     0.538280000000    -0.403131   
O14      O      0.072660000000     0.043580000000     0.523290000000    -0.388787   
O15      O      0.964580000000     0.050080000000     0.532030000000    -0.389291   
O16      O      0.061810000000     0.939020000000     0.529480000000    -0.394226   
O17      O      0.523930000000     0.510220000000     0.952700000000    -0.486318   
O18      O      0.535690000000     0.518880000000     0.051640000000    -0.478522   
O19      O      0.579320000000     0.466570000000     0.002580000000    -0.470638   
O20      O      0.477120000000     0.561590000000     0.004730000000    -0.465786   
O21      O      0.416020000000     0.503230000000     0.007730000000    -0.470996   
O22      O      0.518470000000     0.407570000000     0.004460000000    -0.467196   
O23      O      0.474960000000     0.460090000000     0.055380000000    -0.468983   
O24      O      0.460650000000     0.454300000000     0.956340000000    -0.453223   
O25      O      0.544400000000     0.524460000000     0.456210000000    -0.478196   
O26      O      0.530970000000     0.516130000000     0.555230000000    -0.467305   
O27      O      0.588990000000     0.472130000000     0.505490000000    -0.470071   
O28      O      0.486940000000     0.567930000000     0.503920000000    -0.470594   
O29      O      0.426320000000     0.508720000000     0.500540000000    -0.470185   
O30      O      0.528200000000     0.413230000000     0.504970000000    -0.462775   
O31      O      0.469370000000     0.458140000000     0.551310000000    -0.475711   
O32      O      0.484860000000     0.464470000000     0.452580000000    -0.486221   
O33      O      0.416870000000     0.420450000000     0.902070000000    -0.280913   
O34      O      0.446520000000     0.425330000000     0.113100000000    -0.295563   
O35      O      0.095690000000     0.868620000000     0.438210000000    -0.293955   
O36      O      0.631920000000     0.537350000000     0.559300000000    -0.309681   
O37      O      0.548170000000     0.324160000000     0.512020000000    -0.297002   
O38      O      0.156100000000     0.079430000000     0.546360000000    -0.294165   
O39      O      0.458660000000     0.651120000000     0.006050000000    -0.298527   
O40      O      0.905110000000     0.873430000000     0.929040000000    -0.29397    
O41      O      0.896250000000     0.095350000000     0.940490000000    -0.29227    
O42      O      0.441060000000     0.355280000000     0.962790000000    -0.294562   


