data_structure

_audit_creation_method RASPA-1.0
_audit_creation_date 2023-5-19
_audit_author_name 'Poobodin Mano'

_cell_length_a    38.9834
_cell_length_b    38.9843
_cell_length_c    38.9841
_cell_angle_alpha 89.9998
_cell_angle_beta  89.9998
_cell_angle_gamma 89.9998
_cell_volume      59245.7

_symmetry_cell_setting          triclinic
_symmetry_space_group_name_Hall 'P 1'
_symmetry_space_group_name_H-M  'P 1'
_symmetry_Int_Tables_number     1

_symmetry_equiv_pos_as_xyz 'x,y,z'

loop_
_atom_site_label
_atom_site_type_symbol
_atom_site_fract_x
_atom_site_fract_y
_atom_site_fract_z
_atom_site_charge
C1       C      0.017760000000     0.087320000000     0.519150000000     0.405708   
C2       C      0.019000000000     0.950430000000     0.518490000000     0.405671   
C3       C      0.086820000000     0.019500000000     0.519050000000     0.405715   
C4       C      0.949930000000     0.018260000000     0.518600000000     0.405921   
C5       C      0.018530000000     0.518550000000     0.450790000000     0.405616   
C6       C      0.018860000000     0.519210000000     0.587680000000     0.405799   
C7       C      0.018270000000     0.450440000000     0.519590000000     0.405606   
C8       C      0.019130000000     0.587330000000     0.518870000000     0.405625   
C9       C      0.518680000000     0.019200000000     0.587430000000     0.405805   
C10      C      0.518060000000     0.018760000000     0.450530000000     0.405842   
C11      C      0.586810000000     0.018510000000     0.518680000000     0.405838   
C12      C      0.449920000000     0.019450000000     0.519270000000     0.40584    
C13      C      0.518270000000     0.018830000000     0.087430000000     0.405659   
C14      C      0.518730000000     0.019400000000     0.950540000000     0.405941   
C15      C      0.518100000000     0.087570000000     0.019250000000     0.405833   
C16      C      0.518910000000     0.950670000000     0.018710000000     0.405736   
C17      C      0.018320000000     0.518650000000     0.087680000000     0.405935   
C18      C      0.018950000000     0.518990000000     0.950790000000     0.405878   
C19      C      0.087080000000     0.519190000000     0.019580000000     0.405873   
C20      C      0.950190000000     0.518440000000     0.018890000000     0.406026   
C21      C      0.518120000000     0.450670000000     0.019210000000     0.405833   
C22      C      0.519150000000     0.587560000000     0.018810000000     0.405881   
C23      C      0.450190000000     0.519620000000     0.019330000000     0.405563   
C24      C      0.587090000000     0.518600000000     0.018680000000     0.405765   
C25      C      0.897290000000     0.487790000000     0.019530000000     0.0725593  
C26      C      0.861460000000     0.487170000000     0.019450000000    -0.0934941  
C27      C      0.842970000000     0.517940000000     0.018280000000     0.04966    
C28      C      0.861190000000     0.548870000000     0.017310000000    -0.0935946  
C29      C      0.897010000000     0.548570000000     0.017630000000     0.072526   
C30      C      0.804880000000     0.517790000000     0.018140000000    -0.00709414 
C31      C      0.786560000000     0.495770000000     0.040030000000    -0.0354349  
C32      C      0.750720000000     0.495830000000     0.040100000000    -0.0355063  
C33      C      0.732390000000     0.517770000000     0.018110000000    -0.00706189 
C34      C      0.750710000000     0.539660000000     0.996090000000    -0.0354381  
C35      C      0.786560000000     0.539750000000     0.996180000000    -0.0354162  
C36      C      0.694300000000     0.517900000000     0.018240000000     0.0495716  
C37      C      0.676060000000     0.516940000000     0.049160000000    -0.09355    
C38      C      0.640240000000     0.517280000000     0.048840000000     0.0725247  
C39      C      0.640000000000     0.519150000000     0.988060000000     0.0726359  
C40      C      0.675830000000     0.519050000000     0.987460000000    -0.0934193  
C41      C      0.139990000000     0.549810000000     0.020840000000     0.0724995  
C42      C      0.175810000000     0.550410000000     0.021050000000    -0.0933858  
C43      C      0.194300000000     0.519640000000     0.019920000000     0.0495675  
C44      C      0.176060000000     0.488720000000     0.018760000000    -0.0935108  
C45      C      0.140250000000     0.489030000000     0.018780000000     0.0724959  
C46      C      0.232390000000     0.519770000000     0.019880000000    -0.00704658 
C47      C      0.250690000000     0.541810000000     0.041780000000    -0.0355109  
C48      C      0.286550000000     0.541810000000     0.041810000000    -0.0354958  
C49      C      0.304880000000     0.519920000000     0.019790000000    -0.00704007 
C50      C      0.286580000000     0.497960000000     0.997830000000    -0.0353932  
C51      C      0.250740000000     0.497810000000     0.997940000000    -0.0354506  
C52      C      0.342980000000     0.520000000000     0.019700000000     0.0495274  
C53      C      0.361440000000     0.521140000000     0.050490000000    -0.0934612  
C54      C      0.397260000000     0.520940000000     0.049910000000     0.0725632  
C55      C      0.397050000000     0.518870000000     0.989140000000     0.0725632  
C56      C      0.361240000000     0.518850000000     0.988800000000    -0.0934192  
C57      C      0.518360000000     0.640520000000     0.988270000000     0.0725591  
C58      C      0.518400000000     0.676340000000     0.987710000000    -0.0934696  
C59      C      0.519700000000     0.694780000000     0.018500000000     0.0495681  
C60      C      0.520870000000     0.676500000000     0.049400000000    -0.0935245  
C61      C      0.520610000000     0.640680000000     0.049040000000     0.0725599  
C62      C      0.519730000000     0.732870000000     0.018400000000    -0.00708471 
C63      C      0.497740000000     0.751150000000     0.996440000000    -0.035395   
C64      C      0.497610000000     0.786990000000     0.996490000000    -0.0354319  
C65      C      0.519630000000     0.805360000000     0.018350000000    -0.00706081 
C66      C      0.541730000000     0.787090000000     0.040210000000    -0.0354981  
C67      C      0.541710000000     0.751240000000     0.040310000000    -0.0354745  
C68      C      0.519470000000     0.843460000000     0.018420000000     0.0496408  
C69      C      0.488530000000     0.861670000000     0.017410000000    -0.0935557  
C70      C      0.488810000000     0.897490000000     0.017610000000     0.0725413  
C71      C      0.549590000000     0.897790000000     0.019490000000     0.0725817  
C72      C      0.550230000000     0.861970000000     0.019510000000    -0.0935361  
C73      C      0.516850000000     0.397550000000     0.988970000000     0.072606   
C74      C      0.516530000000     0.361730000000     0.988620000000    -0.0934562  
C75      C      0.517480000000     0.343460000000     0.019520000000     0.0495559  
C76      C      0.518580000000     0.361900000000     0.050320000000    -0.093481   
C77      C      0.518660000000     0.397720000000     0.049760000000     0.0724799  
C78      C      0.517390000000     0.305360000000     0.019630000000    -0.00702637 
C79      C      0.495500000000     0.287020000000     0.997620000000    -0.0354492  
C80      C      0.495440000000     0.251170000000     0.997720000000    -0.0353916  
C81      C      0.517430000000     0.232870000000     0.019680000000    -0.00709401 
C82      C      0.539360000000     0.251220000000     0.041640000000    -0.0354737  
C83      C      0.539270000000     0.287070000000     0.041690000000    -0.0355109  
C84      C      0.517580000000     0.194780000000     0.019600000000     0.0496577  
C85      C      0.548500000000     0.176570000000     0.020660000000    -0.0935257  
C86      C      0.548220000000     0.140750000000     0.020440000000     0.0724687  
C87      C      0.487430000000     0.140460000000     0.018430000000     0.0724777  
C88      C      0.486810000000     0.176290000000     0.018420000000    -0.0934552  
C89      C      0.519940000000     0.049730000000     0.640390000000     0.0725365  
C90      C      0.520160000000     0.050270000000     0.676210000000    -0.0934445  
C91      C      0.519040000000     0.019460000000     0.694640000000     0.0495689  
C92      C      0.517860000000     0.988580000000     0.676360000000    -0.0934558  
C93      C      0.517860000000     0.988950000000     0.640540000000     0.0725432  
C94      C      0.519050000000     0.019530000000     0.732730000000    -0.00706731 
C95      C      0.540980000000     0.041540000000     0.751040000000    -0.0354875  
C96      C      0.541050000000     0.041500000000     0.786890000000    -0.0354936  
C97      C      0.519030000000     0.019600000000     0.805230000000    -0.00708041 
C98      C      0.497040000000     0.997660000000     0.786920000000    -0.0354007  
C99      C      0.497110000000     0.997560000000     0.751080000000    -0.0354352  
C100     C      0.518980000000     0.019640000000     0.843320000000     0.0496488  
C101     C      0.549790000000     0.020770000000     0.861740000000    -0.0934378  
C102     C      0.549260000000     0.020600000000     0.897570000000     0.0725009  
C103     C      0.488480000000     0.018560000000     0.897430000000     0.0725146  
C104     C      0.488100000000     0.018500000000     0.861610000000    -0.0935535  
C105     C      0.518930000000     0.049020000000     0.397430000000     0.072538   
C106     C      0.518980000000     0.049410000000     0.361620000000    -0.0935454  
C107     C      0.517810000000     0.018530000000     0.343320000000     0.0495466  
C108     C      0.516660000000     0.987720000000     0.361740000000    -0.0933432  
C109     C      0.516830000000     0.988240000000     0.397560000000     0.0725222  
C110     C      0.517850000000     0.018480000000     0.305230000000    -0.00705805 
C111     C      0.495930000000     0.996490000000     0.286890000000    -0.0354367  
C112     C      0.495900000000     0.996560000000     0.251040000000    -0.0353785  
C113     C      0.517920000000     0.018470000000     0.232740000000    -0.00707545 
C114     C      0.539910000000     0.040390000000     0.251080000000    -0.0355096  
C115     C      0.539810000000     0.040460000000     0.286920000000    -0.0354854  
C116     C      0.517990000000     0.018480000000     0.194640000000     0.0496553  
C117     C      0.487190000000     0.017390000000     0.176210000000    -0.0935023  
C118     C      0.487730000000     0.017610000000     0.140390000000     0.0724968  
C119     C      0.548510000000     0.019630000000     0.140540000000     0.0725675  
C120     C      0.548880000000     0.019640000000     0.176360000000    -0.0935489  
C121     C      0.049360000000     0.518200000000     0.640660000000     0.072509   
C122     C      0.049900000000     0.518140000000     0.676480000000    -0.0935037  
C123     C      0.019100000000     0.519450000000     0.694900000000     0.049546   
C124     C      0.988220000000     0.520730000000     0.676610000000    -0.0933429  
C125     C      0.988590000000     0.520560000000     0.640780000000     0.0724887  
C126     C      0.019170000000     0.519440000000     0.732990000000    -0.00705611 
C127     C      0.041080000000     0.497390000000     0.751270000000    -0.0354795  
C128     C      0.041040000000     0.497270000000     0.787110000000    -0.0355014  
C129     C      0.019230000000     0.519350000000     0.805480000000    -0.00706392 
C130     C      0.997410000000     0.541490000000     0.787210000000    -0.0354128  
C131     C      0.997310000000     0.541470000000     0.751360000000    -0.0354471  
C132     C      0.019220000000     0.519260000000     0.843580000000     0.0496473  
C133     C      0.020170000000     0.488360000000     0.861860000000    -0.0935194  
C134     C      0.019990000000     0.488730000000     0.897680000000     0.0725493  
C135     C      0.018260000000     0.549520000000     0.897830000000     0.0725316  
C136     C      0.018220000000     0.550060000000     0.862010000000    -0.0935056  
C137     C      0.017010000000     0.548910000000     0.140790000000     0.0724717  
C138     C      0.016840000000     0.549280000000     0.176610000000    -0.0934988  
C139     C      0.018090000000     0.518400000000     0.194900000000     0.0496281  
C140     C      0.019370000000     0.487600000000     0.176470000000    -0.0935103  
C141     C      0.019310000000     0.488140000000     0.140650000000     0.0725673  
C142     C      0.018090000000     0.518320000000     0.232990000000    -0.00709563 
C143     C      0.996090000000     0.540200000000     0.251360000000    -0.0353965  
C144     C      0.996060000000     0.540100000000     0.287210000000    -0.0354493  
C145     C      0.018180000000     0.518260000000     0.305480000000    -0.00704686 
C146     C      0.040240000000     0.496440000000     0.287110000000    -0.0354778  
C147     C      0.040120000000     0.496400000000     0.251270000000    -0.0354569  
C148     C      0.018270000000     0.518270000000     0.343580000000     0.0495771  
C149     C      0.987460000000     0.519300000000     0.362000000000    -0.0934381  
C150     C      0.988000000000     0.519270000000     0.397830000000     0.0725487  
C151     C      0.048790000000     0.517480000000     0.397680000000     0.0725325  
C152     C      0.049170000000     0.517290000000     0.361860000000    -0.0935369  
C153     C      0.396720000000     0.989370000000     0.520450000000     0.072589   
C154     C      0.360900000000     0.989110000000     0.520650000000    -0.0934586  
C155     C      0.342710000000     0.020060000000     0.519580000000     0.0495512  
C156     C      0.361220000000     0.050810000000     0.518420000000    -0.093456   
C157     C      0.397050000000     0.050150000000     0.518440000000     0.0724861  
C158     C      0.304610000000     0.020230000000     0.519650000000    -0.00704397 
C159     C      0.286240000000     0.998310000000     0.541610000000    -0.0354351  
C160     C      0.250400000000     0.998410000000     0.541630000000    -0.0354036  
C161     C      0.232120000000     0.020300000000     0.519560000000    -0.00709346 
C162     C      0.250490000000     0.042190000000     0.497570000000    -0.0354638  
C163     C      0.286340000000     0.042230000000     0.497690000000    -0.0354891  
C164     C      0.194030000000     0.020220000000     0.519430000000     0.0496589  
C165     C      0.175570000000     0.019120000000     0.550220000000    -0.0935494  
C166     C      0.139750000000     0.019020000000     0.549630000000     0.0725984  
C167     C      0.139960000000     0.020830000000     0.488850000000     0.0725435  
C168     C      0.175780000000     0.021160000000     0.488510000000    -0.0935747  
C169     C      0.896980000000     0.018990000000     0.488040000000     0.0725166  
C170     C      0.861150000000     0.018910000000     0.487480000000    -0.0935328  
C171     C      0.842710000000     0.017600000000     0.518260000000     0.0496749  
C172     C      0.860980000000     0.016430000000     0.549160000000    -0.093519   
C173     C      0.896800000000     0.016740000000     0.548810000000     0.0725254  
C174     C      0.804620000000     0.017540000000     0.518160000000    -0.00712322 
C175     C      0.786330000000     0.039550000000     0.496210000000    -0.0354453  
C176     C      0.750490000000     0.039680000000     0.496280000000    -0.0355044  
C177     C      0.732120000000     0.017670000000     0.518150000000    -0.00705238 
C178     C      0.750400000000     0.995550000000     0.539990000000    -0.0354351  
C179     C      0.786250000000     0.995560000000     0.540070000000    -0.0353928  
C180     C      0.694030000000     0.017860000000     0.518260000000     0.0495545  
C181     C      0.675850000000     0.048820000000     0.517290000000    -0.0935437  
C182     C      0.640030000000     0.048570000000     0.517530000000     0.072466   
C183     C      0.639670000000     0.987780000000     0.519400000000     0.0725329  
C184     C      0.675500000000     0.987120000000     0.519380000000    -0.0933489  
C185     C      0.018520000000     0.897520000000     0.487860000000     0.0725929  
C186     C      0.018650000000     0.861690000000     0.487260000000    -0.093507   
C187     C      0.019810000000     0.843220000000     0.518040000000     0.0496548  
C188     C      0.020740000000     0.861460000000     0.548960000000    -0.0935574  
C189     C      0.020380000000     0.897280000000     0.548640000000     0.0725199  
C190     C      0.019950000000     0.805130000000     0.517910000000    -0.00709788 
C191     C      0.998060000000     0.786800000000     0.495890000000    -0.0353747  
C192     C      0.997960000000     0.750950000000     0.496000000000    -0.0354764  
C193     C      0.019910000000     0.732640000000     0.517980000000    -0.00702394 
C194     C      0.041930000000     0.750960000000     0.539870000000    -0.0354954  
C195     C      0.041880000000     0.786810000000     0.539910000000    -0.0354955  
C196     C      0.019730000000     0.694550000000     0.518160000000     0.0495151  
C197     C      0.988780000000     0.676350000000     0.517200000000    -0.093419   
C198     C      0.989040000000     0.640530000000     0.517560000000     0.0724886  
C199     C      0.049830000000     0.640210000000     0.519480000000     0.0724887  
C200     C      0.050480000000     0.676030000000     0.519360000000    -0.0934464  
C201     C      0.018470000000     0.140470000000     0.488970000000     0.0725909  
C202     C      0.018470000000     0.176290000000     0.488630000000    -0.0936542  
C203     C      0.017290000000     0.194540000000     0.519540000000     0.0496702  
C204     C      0.016150000000     0.176070000000     0.550320000000    -0.0934506  
C205     C      0.016370000000     0.140250000000     0.549740000000     0.0725039  
C206     C      0.017370000000     0.232630000000     0.519650000000    -0.00713827 
C207     C      0.039350000000     0.250950000000     0.497700000000    -0.0354226  
C208     C      0.039510000000     0.286790000000     0.497830000000    -0.0355624  
C209     C      0.017560000000     0.305130000000     0.519790000000    -0.00700692 
C210     C      0.995500000000     0.286820000000     0.541670000000    -0.0354846  
C211     C      0.995480000000     0.250970000000     0.541670000000    -0.0353453  
C212     C      0.017720000000     0.343220000000     0.519870000000     0.0495041  
C213     C      0.986960000000     0.361730000000     0.521000000000    -0.093289   
C214     C      0.987590000000     0.397560000000     0.520820000000     0.0725103  
C215     C      0.048370000000     0.397250000000     0.518770000000     0.0724936  
C216     C      0.048650000000     0.361430000000     0.518720000000    -0.0935023  
Cu1      Cu     0.018270000000     0.018700000000     0.550460000000     0.845822   
Cu2      Cu     0.018480000000     0.019050000000     0.487180000000     0.845917   
Cu3      Cu     0.050330000000     0.518670000000     0.519160000000     0.846264   
Cu4      Cu     0.987050000000     0.519100000000     0.519310000000     0.846049   
Cu5      Cu     0.518130000000     0.987340000000     0.519100000000     0.846162   
Cu6      Cu     0.518600000000     0.050620000000     0.518860000000     0.846175   
Cu7      Cu     0.550140000000     0.019330000000     0.019110000000     0.846051   
Cu8      Cu     0.486860000000     0.018910000000     0.018860000000     0.846152   
Cu9      Cu     0.018820000000     0.487180000000     0.019160000000     0.846181   
Cu10     Cu     0.018440000000     0.550460000000     0.019310000000     0.84594    
Cu11     Cu     0.518810000000     0.519210000000     0.050650000000     0.846009   
Cu12     Cu     0.518470000000     0.519030000000     0.987370000000     0.846287   
H1       H      0.910540000000     0.463350000000     0.020330000000     0.0253785  
H2       H      0.848360000000     0.462670000000     0.019850000000     0.0526906  
H3       H      0.847880000000     0.573250000000     0.016780000000     0.0526408  
H4       H      0.910040000000     0.573140000000     0.016980000000     0.0253174  
H5       H      0.799950000000     0.478760000000     0.057460000000     0.0376156  
H6       H      0.737330000000     0.478440000000     0.057140000000     0.0376093  
H7       H      0.737330000000     0.557070000000     0.979070000000     0.037665   
H8       H      0.799940000000     0.556790000000     0.978790000000     0.0376406  
H9       H      0.689360000000     0.516430000000     0.073550000000     0.0526232  
H10      H      0.627200000000     0.516650000000     0.073400000000     0.0252929  
H11      H      0.626770000000     0.519940000000     0.963610000000     0.0253641  
H12      H      0.688950000000     0.519440000000     0.962970000000     0.052699   
H13      H      0.126740000000     0.574250000000     0.021580000000     0.0253747  
H14      H      0.188930000000     0.574910000000     0.021590000000     0.0526232  
H15      H      0.189370000000     0.464330000000     0.018270000000     0.0525814  
H16      H      0.127210000000     0.464480000000     0.017970000000     0.0253126  
H17      H      0.237290000000     0.558800000000     0.059200000000     0.0376719  
H18      H      0.299920000000     0.559240000000     0.058820000000     0.0376557  
H19      H      0.299970000000     0.480570000000     0.980780000000     0.0375788  
H20      H      0.237370000000     0.480760000000     0.980550000000     0.0376089  
H21      H      0.348300000000     0.521680000000     0.074970000000     0.0526775  
H22      H      0.410490000000     0.521690000000     0.074370000000     0.0253749  
H23      H      0.410100000000     0.518050000000     0.964590000000     0.0253131  
H24      H      0.347950000000     0.518350000000     0.964390000000     0.0525636  
H25      H      0.517450000000     0.627310000000     0.963810000000     0.0253523  
H26      H      0.517850000000     0.689480000000     0.963240000000     0.0526599  
H27      H      0.521510000000     0.689770000000     0.073800000000     0.0526718  
H28      H      0.521400000000     0.627610000000     0.073580000000     0.0253431  
H29      H      0.480280000000     0.737730000000     0.979490000000     0.0376187  
H30      H      0.480510000000     0.800340000000     0.979130000000     0.0376103  
H31      H      0.558780000000     0.800510000000     0.057560000000     0.0376656  
H32      H      0.559180000000     0.737890000000     0.057300000000     0.0376393  
H33      H      0.464150000000     0.848350000000     0.016940000000     0.0526138  
H34      H      0.464240000000     0.910500000000     0.016940000000     0.0252988  
H35      H      0.574020000000     0.911060000000     0.020230000000     0.025381   
H36      H      0.574730000000     0.848880000000     0.019940000000     0.0527045  
H37      H      0.516240000000     0.410620000000     0.964430000000     0.025335   
H38      H      0.516050000000     0.348450000000     0.964220000000     0.0526748  
H39      H      0.518950000000     0.348760000000     0.074800000000     0.052636   
H40      H      0.519410000000     0.410930000000     0.074220000000     0.0253436  
H41      H      0.478130000000     0.300390000000     0.980550000000     0.0376349  
H42      H      0.478460000000     0.237760000000     0.980290000000     0.0376573  
H43      H      0.556380000000     0.237860000000     0.059070000000     0.0375831  
H44      H      0.556650000000     0.300470000000     0.058730000000     0.0375993  
H45      H      0.572890000000     0.189880000000     0.021200000000     0.052604   
H46      H      0.572780000000     0.127730000000     0.021160000000     0.0253046  
H47      H      0.463000000000     0.127210000000     0.017620000000     0.0253601  
H48      H      0.462310000000     0.189390000000     0.017940000000     0.0526631  
H49      H      0.520690000000     0.074200000000     0.627180000000     0.0253932  
H50      H      0.520720000000     0.074740000000     0.689370000000     0.0526725  
H51      H      0.517360000000     0.964160000000     0.689610000000     0.0525992  
H52      H      0.517040000000     0.964420000000     0.627460000000     0.0253075  
H53      H      0.558390000000     0.058540000000     0.737640000000     0.0376721  
H54      H      0.558070000000     0.058910000000     0.800260000000     0.0376792  
H55      H      0.480000000000     0.980270000000     0.800310000000     0.037587   
H56      H      0.479700000000     0.980530000000     0.737710000000     0.0375884  
H57      H      0.574260000000     0.021300000000     0.848580000000     0.0526728  
H58      H      0.573730000000     0.021340000000     0.910770000000     0.0253994  
H59      H      0.463950000000     0.017760000000     0.910510000000     0.0253044  
H60      H      0.463680000000     0.018010000000     0.848360000000     0.0525991  
H61      H      0.519750000000     0.073550000000     0.410520000000     0.0253024  
H62      H      0.519490000000     0.073830000000     0.348370000000     0.0526031  
H63      H      0.516100000000     0.963250000000     0.348580000000     0.0526621  
H64      H      0.516070000000     0.963780000000     0.410760000000     0.0253967  
H65      H      0.478500000000     0.979480000000     0.300260000000     0.037673   
H66      H      0.478870000000     0.979170000000     0.237630000000     0.0376551  
H67      H      0.556960000000     0.057780000000     0.237720000000     0.0375907  
H68      H      0.557220000000     0.057470000000     0.300320000000     0.0375764  
H69      H      0.462720000000     0.016850000000     0.189360000000     0.0526812  
H70      H      0.463270000000     0.016880000000     0.127180000000     0.0253789  
H71      H      0.573050000000     0.020430000000     0.127470000000     0.0252798  
H72      H      0.573300000000     0.020110000000     0.189620000000     0.0525872  
H73      H      0.073830000000     0.517270000000     0.627460000000     0.0253542  
H74      H      0.074370000000     0.517520000000     0.689630000000     0.0526375  
H75      H      0.963800000000     0.521380000000     0.689860000000     0.052625   
H76      H      0.964070000000     0.521430000000     0.627700000000     0.0253633  
H77      H      0.058000000000     0.479910000000     0.737850000000     0.0376381  
H78      H      0.058360000000     0.480140000000     0.800460000000     0.0376182  
H79      H      0.980100000000     0.558580000000     0.800630000000     0.0376326  
H80      H      0.980360000000     0.558970000000     0.738010000000     0.0376468  
H81      H      0.020580000000     0.463950000000     0.848590000000     0.0526578  
H82      H      0.020610000000     0.464190000000     0.910760000000     0.0253387  
H83      H      0.017580000000     0.573990000000     0.911030000000     0.0253352  
H84      H      0.017850000000     0.574540000000     0.848860000000     0.0526161  
H85      H      0.016160000000     0.573440000000     0.127700000000     0.025364   
H86      H      0.016220000000     0.573690000000     0.189870000000     0.0526408  
H87      H      0.019970000000     0.463130000000     0.189630000000     0.0526177  
H88      H      0.020210000000     0.463670000000     0.127460000000     0.0253199  
H89      H      0.978600000000     0.557170000000     0.238010000000     0.03763    
H90      H      0.978990000000     0.557430000000     0.300630000000     0.0376297  
H91      H      0.057360000000     0.479090000000     0.300460000000     0.0375903  
H92      H      0.057590000000     0.479460000000     0.237850000000     0.0376198  
H93      H      0.962990000000     0.519690000000     0.348850000000     0.0526489  
H94      H      0.963530000000     0.519970000000     0.411020000000     0.025336   
H95      H      0.073330000000     0.516830000000     0.410770000000     0.0253528  
H96      H      0.073580000000     0.516860000000     0.348600000000     0.0526762  
H97      H      0.409720000000     0.964800000000     0.521170000000     0.0253033  
H98      H      0.347560000000     0.964740000000     0.521180000000     0.0526198  
H99      H      0.348140000000     0.075320000000     0.517940000000     0.0526791  
H100     H      0.410330000000     0.074580000000     0.517640000000     0.0253879  
H101     H      0.299590000000     0.981280000000     0.559040000000     0.0375925  
H102     H      0.236980000000     0.981040000000     0.558660000000     0.0376078  
H103     H      0.237140000000     0.059560000000     0.480480000000     0.0376102  
H104     H      0.299770000000     0.059200000000     0.480260000000     0.0376468  
H105     H      0.188700000000     0.018750000000     0.574710000000     0.0526304  
H106     H      0.126530000000     0.018250000000     0.574090000000     0.025317   
H107     H      0.126900000000     0.021430000000     0.464300000000     0.0253314  
H108     H      0.189070000000     0.021650000000     0.464120000000     0.0526897  
H109     H      0.910190000000     0.019920000000     0.463590000000     0.0253432  
H110     H      0.848020000000     0.019450000000     0.463000000000     0.0526439  
H111     H      0.847700000000     0.015780000000     0.573560000000     0.0526539  
H112     H      0.909870000000     0.015960000000     0.573350000000     0.0253673  
H113     H      0.799750000000     0.057000000000     0.479250000000     0.0376111  
H114     H      0.737140000000     0.056790000000     0.478930000000     0.037596   
H115     H      0.736990000000     0.978510000000     0.557360000000     0.0376719  
H116     H      0.799610000000     0.978090000000     0.557050000000     0.0376539  
H117     H      0.689190000000     0.073180000000     0.516800000000     0.0526423  
H118     H      0.627030000000     0.073150000000     0.516880000000     0.0253219  
H119     H      0.626390000000     0.963360000000     0.520160000000     0.0253882  
H120     H      0.688570000000     0.962600000000     0.519780000000     0.0526573  
H121     H      0.017720000000     0.910750000000     0.463410000000     0.0253691  
H122     H      0.018280000000     0.848570000000     0.462770000000     0.0526934  
H123     H      0.021260000000     0.848160000000     0.573350000000     0.0526249  
H124     H      0.020980000000     0.910320000000     0.573200000000     0.0253109  
H125     H      0.980650000000     0.800180000000     0.478860000000     0.0376536  
H126     H      0.980920000000     0.737560000000     0.478620000000     0.0376523  
H127     H      0.058930000000     0.737580000000     0.557310000000     0.0376329  
H128     H      0.059260000000     0.800200000000     0.556950000000     0.0376162  
H129     H      0.964410000000     0.689680000000     0.516660000000     0.0526225  
H130     H      0.964470000000     0.627520000000     0.516920000000     0.0253314  
H131     H      0.074260000000     0.626930000000     0.520290000000     0.0253987  
H132     H      0.074990000000     0.689110000000     0.519760000000     0.0526815  
H133     H      0.019310000000     0.127430000000     0.464420000000     0.0252836  
H134     H      0.018970000000     0.189570000000     0.464240000000     0.0526522  
H135     H      0.015590000000     0.189200000000     0.574810000000     0.052651   
H136     H      0.015630000000     0.127010000000     0.574190000000     0.02539    
H137     H      0.056730000000     0.237560000000     0.480650000000     0.0375742  
H138     H      0.056570000000     0.300150000000     0.480450000000     0.0376164  
H139     H      0.978510000000     0.300220000000     0.559090000000     0.0376857  
H140     H      0.978040000000     0.237590000000     0.558670000000     0.0376397  
H141     H      0.962450000000     0.348640000000     0.521540000000     0.0526365  
H142     H      0.963160000000     0.410830000000     0.521580000000     0.0254034  
H143     H      0.072940000000     0.410260000000     0.517960000000     0.0253183  
H144     H      0.073030000000     0.348110000000     0.518220000000     0.0526065  
N1       N      0.914970000000     0.518260000000     0.018690000000    -0.193767   
N2       N      0.622310000000     0.518340000000     0.018520000000    -0.193797   
N3       N      0.122300000000     0.519350000000     0.019740000000    -0.193733   
N4       N      0.414980000000     0.519820000000     0.019470000000    -0.193802   
N5       N      0.519380000000     0.622780000000     0.018710000000    -0.193776   
N6       N      0.519110000000     0.915460000000     0.018600000000    -0.193791   
N7       N      0.517870000000     0.415450000000     0.019310000000    -0.193764   
N8       N      0.517910000000     0.122790000000     0.019380000000    -0.193712   
N9       N      0.518830000000     0.019300000000     0.622650000000    -0.193767   
N10      N      0.518830000000     0.019520000000     0.915320000000    -0.193741   
N11      N      0.517940000000     0.018670000000     0.415320000000    -0.193817   
N12      N      0.518170000000     0.018690000000     0.122650000000    -0.193721   
N13      N      0.018940000000     0.519330000000     0.622900000000    -0.193746   
N14      N      0.019080000000     0.519080000000     0.915570000000    -0.193753   
N15      N      0.018200000000     0.518560000000     0.122900000000    -0.193747   
N16      N      0.018440000000     0.518420000000     0.415570000000    -0.193737   
N17      N      0.414700000000     0.019660000000     0.519390000000    -0.193776   
N18      N      0.122040000000     0.019790000000     0.519180000000    -0.193746   
N19      N      0.914710000000     0.017990000000     0.518480000000    -0.193738   
N20      N      0.622030000000     0.018280000000     0.518530000000    -0.193741   
N21      N      0.019300000000     0.915210000000     0.518320000000    -0.193724   
N22      N      0.019340000000     0.622550000000     0.518640000000    -0.193694   
N23      N      0.017520000000     0.122540000000     0.519290000000    -0.19372    
N24      N      0.018070000000     0.415220000000     0.519730000000    -0.193713   
O1       O      0.017640000000     0.070750000000     0.547650000000    -0.397756   
O2       O      0.018920000000     0.966720000000     0.547140000000    -0.398063   
O3       O      0.070290000000     0.019280000000     0.547570000000    -0.397984   
O4       O      0.966270000000     0.018080000000     0.547220000000    -0.398054   
O5       O      0.966450000000     0.018730000000     0.490080000000    -0.397964   
O6       O      0.070480000000     0.019420000000     0.490420000000    -0.397996   
O7       O      0.018770000000     0.967010000000     0.489990000000    -0.397764   
O8       O      0.018170000000     0.071030000000     0.490500000000    -0.39814    
O9       O      0.047140000000     0.518520000000     0.467160000000    -0.398046   
O10      O      0.047390000000     0.518770000000     0.571180000000    -0.398073   
O11      O      0.046940000000     0.466700000000     0.519260000000    -0.398175   
O12      O      0.047600000000     0.570710000000     0.519080000000    -0.397921   
O13      O      0.990450000000     0.571080000000     0.518850000000    -0.397987   
O14      O      0.989790000000     0.467050000000     0.519740000000    -0.397706   
O15      O      0.990250000000     0.519510000000     0.571310000000    -0.398018   
O16      O      0.989990000000     0.518730000000     0.467300000000    -0.397907   
O17      O      0.518350000000     0.990580000000     0.571090000000    -0.398115   
O18      O      0.517880000000     0.990240000000     0.467060000000    -0.397845   
O19      O      0.570180000000     0.990050000000     0.518900000000    -0.397873   
O20      O      0.466160000000     0.990770000000     0.519360000000    -0.398181   
O21      O      0.466550000000     0.047910000000     0.519050000000    -0.397947   
O22      O      0.570570000000     0.047190000000     0.518610000000    -0.398235   
O23      O      0.518390000000     0.047380000000     0.466880000000    -0.398215   
O24      O      0.518850000000     0.047720000000     0.570900000000    -0.397906   
O25      O      0.546900000000     0.019130000000     0.071090000000    -0.398123   
O26      O      0.547250000000     0.019570000000     0.967070000000    -0.397874   
O27      O      0.546760000000     0.071300000000     0.019350000000    -0.398243   
O28      O      0.547390000000     0.967280000000     0.018920000000    -0.397767   
O29      O      0.490240000000     0.966940000000     0.018620000000    -0.398122   
O30      O      0.489620000000     0.070960000000     0.019030000000    -0.39784    
O31      O      0.490110000000     0.019100000000     0.966880000000    -0.398244   
O32      O      0.489750000000     0.018680000000     0.070890000000    -0.397916   
O33      O      0.018730000000     0.490120000000     0.071180000000    -0.398108   
O34      O      0.018960000000     0.490380000000     0.967160000000    -0.398058   
O35      O      0.070800000000     0.490530000000     0.019250000000    -0.398172   
O36      O      0.966780000000     0.489960000000     0.019090000000    -0.398023   
O37      O      0.966460000000     0.547100000000     0.018870000000    -0.398195   
O38      O      0.070490000000     0.547670000000     0.019730000000    -0.397917   
O39      O      0.018800000000     0.547520000000     0.967300000000    -0.398049   
O40      O      0.018040000000     0.547260000000     0.071320000000    -0.398069   
O41      O      0.518310000000     0.467190000000     0.047730000000    -0.398048   
O42      O      0.519350000000     0.571210000000     0.047430000000    -0.398081   
O43      O      0.466770000000     0.519750000000     0.047830000000    -0.397767   
O44      O      0.570790000000     0.518630000000     0.047330000000    -0.39813    
O45      O      0.570510000000     0.518810000000     0.990190000000    -0.397903   
O46      O      0.466500000000     0.519260000000     0.990680000000    -0.398076   
O47      O      0.518710000000     0.571050000000     0.990290000000    -0.398087   
O48      O      0.518180000000     0.467020000000     0.990590000000    -0.39795    


