data_structure

_audit_creation_method RASPA-1.0
_audit_creation_date 2023-6-4
_audit_author_name 'Poobodin Mano'

_cell_length_a    26.5748
_cell_length_b    27.1051
_cell_length_c    38.4983
_cell_angle_alpha 89.9988
_cell_angle_beta  89.9988
_cell_angle_gamma 93.651
_cell_volume      27674.5

_symmetry_cell_setting          triclinic
_symmetry_space_group_name_Hall 'P 1'
_symmetry_space_group_name_H-M  'P 1'
_symmetry_Int_Tables_number     1

_symmetry_equiv_pos_as_xyz 'x,y,z'

loop_
_atom_site_label
_atom_site_type_symbol
_atom_site_fract_x
_atom_site_fract_y
_atom_site_fract_z
_atom_site_charge
C1       C      0.063930000000     0.917580000000     0.002060000000     0.42274    
C2       C      0.937060000000     0.065020000000     0.002950000000     0.400457   
C3       C      0.078970000000     0.055850000000     0.998360000000     0.416611   
C4       C      0.921600000000     0.927150000000     0.006990000000     0.439632   
C5       C      0.068090000000     0.919490000000     0.504690000000     0.399359   
C6       C      0.930380000000     0.056790000000     0.504510000000     0.399069   
C7       C      0.071330000000     0.058610000000     0.514380000000     0.41271    
C8       C      0.926260000000     0.918170000000     0.494840000000     0.412708   
C9       C      0.506650000000     0.496670000000     0.937410000000     0.502017   
C10      C      0.496230000000     0.486510000000     0.069850000000     0.479762   
C11      C      0.570950000000     0.430100000000     0.003860000000     0.490043   
C12      C      0.431570000000     0.554660000000     0.003460000000     0.465628   
C13      C      0.492290000000     0.481470000000     0.437570000000     0.504655   
C14      C      0.505670000000     0.494110000000     0.569670000000     0.483385   
C15      C      0.564630000000     0.421660000000     0.503800000000     0.49273    
C16      C      0.432700000000     0.553390000000     0.503960000000     0.492322   
C17      C      0.545020000000     0.532430000000     0.848490000000    -0.218649   
C18      C      0.476830000000     0.465100000000     0.624930000000     0.0818006  
C19      C      0.542380000000     0.528480000000     0.621620000000     0.0794167  
C20      C      0.479160000000     0.465770000000     0.661110000000    -0.0938634  
C21      C      0.513200000000     0.454410000000     0.735400000000    -0.0380018  
C22      C      0.513180000000     0.454640000000     0.771660000000    -0.0229025  
C23      C      0.516700000000     0.499000000000     0.716650000000    -0.00166983 
C24      C      0.545570000000     0.530260000000     0.657890000000    -0.0938349  
C25      C      0.516580000000     0.499470000000     0.790130000000    -0.0256085  
C26      C      0.480520000000     0.466210000000     0.846210000000    -0.125423   
C27      C      0.521270000000     0.544100000000     0.771400000000    -0.0222509  
C28      C      0.478660000000     0.466150000000     0.882410000000     0.103638   
C29      C      0.542330000000     0.531520000000     0.884800000000     0.419292   
C30      C      0.521380000000     0.543860000000     0.735040000000    -0.0374613  
C31      C      0.513910000000     0.498420000000     0.678080000000     0.0525398  
C32      C      0.514100000000     0.499440000000     0.828740000000     0.110839   
C33      C      0.457390000000     0.442960000000     0.348490000000    -0.215905   
C34      C      0.525850000000     0.514560000000     0.125210000000     0.0800274  
C35      C      0.461360000000     0.450180000000     0.121670000000     0.0789342  
C36      C      0.525010000000     0.512070000000     0.161410000000    -0.0937797  
C37      C      0.536210000000     0.478890000000     0.235780000000    -0.0373896  
C38      C      0.535660000000     0.478180000000     0.272030000000    -0.0229948  
C39      C      0.490940000000     0.474580000000     0.216820000000    -0.00190628 
C40      C      0.459520000000     0.446720000000     0.157900000000    -0.0938809  
C41      C      0.489820000000     0.473110000000     0.290300000000    -0.0247269  
C42      C      0.521570000000     0.509520000000     0.346480000000    -0.125114   
C43      C      0.444530000000     0.467560000000     0.271400000000    -0.0225954  
C44      C      0.521510000000     0.511030000000     0.382660000000     0.107743   
C45      C      0.458280000000     0.445230000000     0.384840000000     0.426632   
C46      C      0.445080000000     0.468320000000     0.235040000000    -0.0369241  
C47      C      0.491750000000     0.477750000000     0.178250000000     0.0522822  
C48      C      0.489490000000     0.475100000000     0.328890000000     0.112287   
C49      C      0.310520000000     0.611560000000     0.506340000000    -0.213107   
C50      C      0.127270000000     0.871960000000     0.474510000000     0.071626   
C51      C      0.115950000000     0.861150000000     0.535040000000     0.0716382  
C52      C      0.163490000000     0.836430000000     0.474120000000    -0.0887386  
C53      C      0.258330000000     0.779400000000     0.483960000000    -0.0382849  
C54      C      0.294190000000     0.743480000000     0.483960000000    -0.0236585  
C55      C      0.214840000000     0.773980000000     0.504900000000    -0.000525343
C56      C      0.151860000000     0.825320000000     0.535540000000    -0.0888855  
C57      C      0.287640000000     0.700800000000     0.504790000000    -0.0238427  
C58      C      0.377580000000     0.674870000000     0.502500000000    -0.124199   
C59      C      0.244160000000     0.695420000000     0.525740000000    -0.0231959  
C60      C      0.412500000000     0.638100000000     0.502410000000     0.0972094  
C61      C      0.346290000000     0.575580000000     0.506080000000     0.418313   
C62      C      0.208420000000     0.731420000000     0.525850000000    -0.0377146  
C63      C      0.176360000000     0.812360000000     0.504860000000     0.0475432  
C64      C      0.325690000000     0.662030000000     0.504540000000     0.106507   
C65      C      0.658640000000     0.609130000000     0.463970000000    -0.223109   
C66      C      0.859620000000     0.865900000000     0.517860000000     0.0766941  
C67      C      0.878010000000     0.863730000000     0.457480000000     0.0763564  
C68      C      0.820350000000     0.830160000000     0.513560000000    -0.0951013  
C69      C      0.720650000000     0.780780000000     0.483410000000    -0.0397567  
C70      C      0.683670000000     0.742100000000     0.484480000000    -0.0232981  
C71      C      0.770780000000     0.771070000000     0.476620000000    -0.00282233 
C72      C      0.839620000000     0.827010000000     0.452400000000    -0.094616   
C73      C      0.696640000000     0.693090000000     0.479570000000    -0.0279524  
C74      C      0.622430000000     0.653830000000     0.511230000000    -0.126563   
C75      C      0.746800000000     0.683890000000     0.471440000000    -0.0223589  
C76      C      0.586890000000     0.614530000000     0.515830000000     0.0971097  
C77      C      0.622870000000     0.570280000000     0.469830000000     0.415947   
C78      C      0.783590000000     0.722760000000     0.469750000000    -0.038908   
C79      C      0.810470000000     0.810390000000     0.480660000000     0.0526239  
C80      C      0.658560000000     0.651650000000     0.484750000000     0.108899   
C81      C      0.621640000000     0.300760000000     0.507140000000    -0.213735   
C82      C      0.873110000000     0.106140000000     0.534940000000     0.0715735  
C83      C      0.881810000000     0.114440000000     0.474040000000     0.0717358  
C84      C      0.837360000000     0.142100000000     0.535400000000    -0.0891258  
C85      C      0.790540000000     0.245310000000     0.482660000000    -0.0377857  
C86      C      0.754670000000     0.281230000000     0.482660000000    -0.0236716  
C87      C      0.785030000000     0.203600000000     0.504500000000    -0.000693798
C88      C      0.846310000000     0.150670000000     0.473590000000    -0.0888455  
C89      C      0.711970000000     0.276490000000     0.504390000000    -0.0234557  
C90      C      0.687200000000     0.365170000000     0.500970000000    -0.121656   
C91      C      0.706500000000     0.234790000000     0.526240000000    -0.0236118  
C92      C      0.650430000000     0.400150000000     0.500970000000     0.100057   
C93      C      0.585670000000     0.336540000000     0.506930000000     0.416002   
C94      C      0.742450000000     0.199010000000     0.526340000000    -0.0377858  
C95      C      0.823350000000     0.165090000000     0.504500000000     0.0476394  
C96      C      0.673220000000     0.314580000000     0.504160000000     0.106416   
C97      C      0.329100000000     0.364700000000     0.497870000000    -0.214129   
C98      C      0.125790000000     0.106770000000     0.551940000000     0.0766717  
C99      C      0.125080000000     0.123580000000     0.491340000000     0.0776443  
C100     C      0.162160000000     0.145350000000     0.557210000000    -0.095015   
C101     C      0.267270000000     0.204500000000     0.539980000000    -0.0367775  
C102     C      0.305050000000     0.242460000000     0.538310000000    -0.0218226  
C103     C      0.217220000000     0.214550000000     0.533300000000    -0.00289251 
C104     C      0.160530000000     0.162910000000     0.495800000000    -0.0949362  
C105     C      0.292950000000     0.290960000000     0.530360000000    -0.0237712  
C106     C      0.377010000000     0.332290000000     0.545180000000    -0.120301   
C107     C      0.242160000000     0.301130000000     0.525750000000    -0.0218497  
C108     C      0.415200000000     0.368460000000     0.538450000000     0.117068   
C109     C      0.367900000000     0.400720000000     0.492350000000     0.445519   
C110     C      0.204590000000     0.263020000000     0.526840000000    -0.0365123  
C111     C      0.179160000000     0.173850000000     0.528930000000     0.0540319  
C112     C      0.333300000000     0.330100000000     0.524700000000     0.11634    
C113     C      0.152750000000     0.827390000000     0.971050000000    -0.21149    
C114     C      0.408690000000     0.638660000000     0.002950000000     0.0779261  
C115     C      0.344680000000     0.573870000000     0.003750000000     0.0801423  
C116     C      0.372330000000     0.674020000000     0.002590000000    -0.0901724  
C117     C      0.286790000000     0.738600000000     0.981000000000    -0.0369564  
C118     C      0.250310000000     0.773900000000     0.980680000000    -0.0235983  
C119     C      0.281520000000     0.696830000000     0.002770000000    -0.00081627 
C120     C      0.307310000000     0.608350000000     0.003890000000    -0.0885799  
C121     C      0.207700000000     0.768930000000     0.002460000000    -0.0233595  
C122     C      0.148400000000     0.824060000000     0.033220000000    -0.121246   
C123     C      0.202510000000     0.727280000000     0.024370000000    -0.0240675  
C124     C      0.113380000000     0.860770000000     0.032530000000     0.0923657  
C125     C      0.117160000000     0.863590000000     0.971110000000     0.41012    
C126     C      0.238680000000     0.691580000000     0.024330000000    -0.0376471  
C127     C      0.320770000000     0.659280000000     0.003130000000     0.0500347  
C128     C      0.169050000000     0.807070000000     0.002270000000     0.104077   
C129     C      0.813540000000     0.853060000000     0.042130000000    -0.224805   
C130     C      0.622820000000     0.587520000000     0.987130000000     0.0969135  
C131     C      0.577510000000     0.616720000000     0.035430000000     0.0820624  
C132     C      0.656130000000     0.629060000000     0.988310000000    -0.080381   
C133     C      0.685860000000     0.741700000000     0.987050000000    -0.0396416  
C134     C      0.721110000000     0.781790000000     0.986940000000    -0.0198656  
C135     C      0.683770000000     0.708880000000     0.015120000000     0.00100345 
C136     C      0.610530000000     0.658340000000     0.037980000000    -0.0894976  
C137     C      0.755360000000     0.788760000000     0.014580000000    -0.0290203  
C138     C      0.821710000000     0.836660000000     0.980960000000    -0.130267   
C139     C      0.751900000000     0.756490000000     0.043190000000    -0.0194959  
C140     C      0.862790000000     0.870800000000     0.979680000000     0.102232   
C141     C      0.855380000000     0.886420000000     0.040180000000     0.419775   
C142     C      0.715940000000     0.716940000000     0.043560000000    -0.0386444  
C143     C      0.649660000000     0.664790000000     0.013870000000     0.0530671  
C144     C      0.796820000000     0.827290000000     0.012470000000     0.115708   
C145     C      0.694950000000     0.375040000000     0.006640000000    -0.213252   
C146     C      0.889900000000     0.123700000000     0.033700000000     0.074013   
C147     C      0.881830000000     0.116750000000     0.972690000000     0.0729139  
C148     C      0.854750000000     0.160320000000     0.034320000000    -0.087312   
C149     C      0.750810000000     0.208970000000     0.981850000000    -0.0380543  
C150     C      0.714620000000     0.244570000000     0.982030000000    -0.0237057  
C151     C      0.793470000000     0.213720000000     0.003620000000    -0.000209566
C152     C      0.846360000000     0.153000000000     0.972420000000    -0.0880202  
C153     C      0.719960000000     0.286320000000     0.003830000000    -0.0240691  
C154     C      0.629480000000     0.310400000000     0.001410000000    -0.124388   
C155     C      0.762720000000     0.291210000000     0.025520000000    -0.0232485  
C156     C      0.593600000000     0.346230000000     0.001550000000     0.0956454  
C157     C      0.658180000000     0.410160000000     0.006470000000     0.413264   
C158     C      0.798770000000     0.255410000000     0.025510000000    -0.0376638  
C159     C      0.832030000000     0.175380000000     0.003470000000     0.0478858  
C160     C      0.681070000000     0.324350000000     0.004000000000     0.105303   
C161     C      0.344990000000     0.361950000000     0.970640000000    -0.226398   
C162     C      0.146870000000     0.101010000000     0.025800000000     0.0788108  
C163     C      0.132460000000     0.111380000000     0.965420000000     0.0793209  
C164     C      0.186760000000     0.136480000000     0.024840000000    -0.0941643  
C165     C      0.241520000000     0.235360000000     0.021590000000    -0.0391434  
C166     C      0.278040000000     0.274260000000     0.021560000000    -0.0221044  
C167     C      0.237350000000     0.202540000000     0.993320000000    -0.00155197 
C168     C      0.171530000000     0.147920000000     0.963680000000    -0.0929633  
C169     C      0.310120000000     0.281450000000     0.993010000000    -0.0307507  
C170     C      0.386800000000     0.322790000000     0.018260000000    -0.130257   
C171     C      0.305800000000     0.249590000000     0.964430000000    -0.0219783  
C172     C      0.421450000000     0.363180000000     0.019690000000     0.098184   
C173     C      0.379970000000     0.402130000000     0.973370000000     0.417977   
C174     C      0.269800000000     0.209960000000     0.964690000000    -0.0388945  
C175     C      0.198570000000     0.161310000000     0.993770000000     0.0531775  
C176     C      0.348350000000     0.322260000000     0.993500000000     0.112941   
Cu1      Cu     0.998100000000     0.989730000000     0.970630000000     0.864886   
Cu2      Cu     0.002840000000     0.992910000000     0.034540000000     0.865157   
Cu3      Cu     0.003930000000     0.992590000000     0.472870000000     0.848666   
Cu4      Cu     0.994360000000     0.983530000000     0.536320000000     0.848173   
Cu5      Cu     0.537400000000     0.530020000000     0.006060000000     1.18331    
Cu6      Cu     0.464530000000     0.454280000000     0.001290000000     1.21702    
Cu7      Cu     0.536970000000     0.524490000000     0.500900000000     1.21639    
Cu8      Cu     0.460770000000     0.450950000000     0.506410000000     1.24089    
F1       F      0.573510000000     0.564300000000     0.902500000000    -0.456172   
F2       F      0.426690000000     0.412750000000     0.402480000000    -0.423723   
F3       F      0.328630000000     0.527470000000     0.507810000000    -0.432236   
F4       F      0.623230000000     0.529110000000     0.449880000000    -0.470105   
F5       F      0.536430000000     0.320220000000     0.509850000000    -0.450996   
F6       F      0.363370000000     0.434630000000     0.466870000000    -0.420808   
F7       F      0.103330000000     0.881540000000     0.939810000000    -0.450679   
F8       F      0.869930000000     0.910680000000     0.069780000000    -0.452489   
F9       F      0.674480000000     0.458590000000     0.008910000000    -0.451853   
F10      F      0.376220000000     0.441570000000     0.952100000000    -0.469298   
H1       H      0.567760000000     0.553470000000     0.606920000000     0.0261733  
H2       H      0.451950000000     0.439620000000     0.894610000000     0.0446382  
H3       H      0.523670000000     0.578840000000     0.721360000000     0.0426127  
H4       H      0.510620000000     0.419580000000     0.785240000000     0.0382651  
H5       H      0.455220000000     0.440590000000     0.832020000000     0.0678648  
H6       H      0.510560000000     0.419190000000     0.722010000000     0.0423548  
H7       H      0.571840000000     0.558460000000     0.835980000000     0.117498   
H8       H      0.573200000000     0.555870000000     0.669980000000     0.0561691  
H9       H      0.453380000000     0.441090000000     0.675690000000     0.0573651  
H10      H      0.523460000000     0.579290000000     0.784820000000     0.0421988  
H11      H      0.449280000000     0.439120000000     0.613020000000     0.0293838  
H12      H      0.436020000000     0.425240000000     0.106900000000     0.0259826  
H13      H      0.547140000000     0.538490000000     0.394910000000     0.0444381  
H14      H      0.409510000000     0.465370000000     0.221240000000     0.0429276  
H15      H      0.571260000000     0.481530000000     0.285790000000     0.0412797  
H16      H      0.546400000000     0.535690000000     0.332390000000     0.0683372  
H17      H      0.572240000000     0.482700000000     0.222570000000     0.0433624  
H18      H      0.432230000000     0.415560000000     0.335820000000     0.122008   
H19      H      0.433520000000     0.419350000000     0.169820000000     0.0563493  
H20      H      0.550010000000     0.537380000000     0.176080000000     0.0566513  
H21      H      0.408570000000     0.464050000000     0.284700000000     0.0446813  
H22      H      0.552210000000     0.541750000000     0.113360000000     0.0286015  
H23      H      0.098320000000     0.869870000000     0.559480000000     0.0284406  
H24      H      0.452120000000     0.650220000000     0.500950000000     0.0221188  
H25      H      0.175320000000     0.725480000000     0.542080000000     0.0427879  
H26      H      0.326790000000     0.748900000000     0.467200000000     0.0383204  
H27      H      0.391450000000     0.713280000000     0.501480000000     0.0628057  
H28      H      0.265070000000     0.811780000000     0.467730000000     0.041699   
H29      H      0.270880000000     0.599630000000     0.507460000000     0.119252   
H30      H      0.160800000000     0.808410000000     0.560080000000     0.0547979  
H31      H      0.180710000000     0.827410000000     0.449630000000     0.0551442  
H32      H      0.237860000000     0.663480000000     0.542450000000     0.0421811  
H33      H      0.118610000000     0.889250000000     0.450020000000     0.0286196  
H34      H      0.899980000000     0.876070000000     0.435020000000     0.0278228  
H35      H      0.558480000000     0.616510000000     0.535810000000     0.0108012  
H36      H      0.822420000000     0.714880000000     0.464850000000     0.0439174  
H37      H      0.645160000000     0.750520000000     0.489910000000     0.0361412  
H38      H      0.621750000000     0.685370000000     0.528440000000     0.0618854  
H39      H      0.710410000000     0.818110000000     0.488700000000     0.0425227  
H40      H      0.685650000000     0.606100000000     0.443140000000     0.114294   
H41      H      0.832620000000     0.811890000000     0.426670000000     0.0578028  
H42      H      0.798350000000     0.817420000000     0.535900000000     0.0567792  
H43      H      0.758160000000     0.646560000000     0.467920000000     0.0404656  
H44      H      0.866390000000     0.880240000000     0.543860000000     0.0270724  
H45      H      0.898230000000     0.104560000000     0.449420000000     0.028735   
H46      H      0.663450000000     0.438730000000     0.498570000000     0.0398696  
H47      H      0.736430000000     0.167310000000     0.543290000000     0.0419425  
H48      H      0.760130000000     0.312430000000     0.465210000000     0.0404055  
H49      H      0.726530000000     0.377980000000     0.498990000000     0.0661084  
H50      H      0.822960000000     0.250600000000     0.465720000000     0.0423688  
H51      H      0.608780000000     0.262140000000     0.509160000000     0.116998   
H52      H      0.836440000000     0.166700000000     0.448950000000     0.0554559  
H53      H      0.821340000000     0.152260000000     0.560050000000     0.0543762  
H54      H      0.674560000000     0.229940000000     0.543650000000     0.0411669  
H55      H      0.882680000000     0.089730000000     0.559560000000     0.0280326  
H56      H      0.111420000000     0.116170000000     0.465200000000     0.0283055  
H57      H      0.448990000000     0.370150000000     0.554180000000     0.0271548  
H58      H      0.165870000000     0.271080000000     0.521690000000     0.045414   
H59      H      0.343830000000     0.233310000000     0.541610000000     0.0440517  
H60      H      0.381560000000     0.306640000000     0.566340000000     0.0689045  
H61      H      0.277390000000     0.166970000000     0.544640000000     0.0445901  
H62      H      0.296460000000     0.363630000000     0.480970000000     0.128078   
H63      H      0.173650000000     0.184410000000     0.473460000000     0.0606725  
H64      H      0.176480000000     0.153170000000     0.583120000000     0.0576217  
H65      H      0.231550000000     0.338300000000     0.520420000000     0.0472023  
H66      H      0.112900000000     0.085470000000     0.574440000000     0.0274971  
H67      H      0.332350000000     0.534970000000     0.004110000000     0.0420435  
H68      H      0.099110000000     0.872860000000     0.057280000000     0.0272464  
H69      H      0.233440000000     0.660170000000     0.041640000000     0.0424243  
H70      H      0.255920000000     0.805590000000     0.963660000000     0.0426833  
H71      H      0.159980000000     0.809820000000     0.058060000000     0.0639405  
H72      H      0.318970000000     0.743800000000     0.963830000000     0.0442783  
H73      H      0.167160000000     0.815030000000     0.946430000000     0.116902   
H74      H      0.268010000000     0.595040000000     0.004030000000     0.0588289  
H75      H      0.384740000000     0.712870000000     0.002370000000     0.0560413  
H76      H      0.170090000000     0.721930000000     0.041310000000     0.0394947  
H77      H      0.447990000000     0.652130000000     0.002690000000     0.0302172  
H78      H      0.546080000000     0.612030000000     0.053210000000     0.0168271  
H79      H      0.881350000000     0.876430000000     0.954780000000     0.0265862  
H80      H      0.714590000000     0.691520000000     0.065320000000     0.0472046  
H81      H      0.722210000000     0.806710000000     0.964920000000     0.038279   
H82      H      0.810580000000     0.816780000000     0.957500000000     0.0678607  
H83      H      0.660640000000     0.735890000000     0.965100000000     0.0490805  
H84      H      0.794500000000     0.847440000000     0.066830000000     0.119561   
H85      H      0.604980000000     0.685690000000     0.057910000000     0.0562411  
H86      H      0.686570000000     0.633300000000     0.969610000000     0.0696674  
H87      H      0.778210000000     0.760490000000     0.064640000000     0.0428923  
H88      H      0.627310000000     0.559590000000     0.967520000000     0.0579483  
H89      H      0.891420000000     0.100700000000     0.947950000000     0.0295866  
H90      H      0.554290000000     0.333130000000     0.999620000000     0.0223451  
H91      H      0.831190000000     0.260760000000     0.042440000000     0.0430602  
H92      H      0.682620000000     0.239560000000     0.964690000000     0.0379099  
H93      H      0.616550000000     0.271760000000     0.999780000000     0.0631497  
H94      H      0.744930000000     0.177280000000     0.964870000000     0.0421628  
H95      H      0.734330000000     0.387800000000     0.008300000000     0.116637   
H96      H      0.830620000000     0.163710000000     0.947800000000     0.0551329  
H97      H      0.844750000000     0.176010000000     0.059050000000     0.0566291  
H98      H      0.768100000000     0.322480000000     0.042930000000     0.0421623  
H99      H      0.905900000000     0.113090000000     0.058280000000     0.033373   
H100     H      0.111640000000     0.102600000000     0.941760000000     0.0308389  
H101     H      0.451600000000     0.363850000000     0.038580000000     0.0114993  
H102     H      0.267770000000     0.184950000000     0.942730000000     0.0425708  
H103     H      0.280910000000     0.299120000000     0.043620000000     0.0386484  
H104     H      0.389840000000     0.292370000000     0.036240000000     0.0644876  
H105     H      0.216230000000     0.231410000000     0.043610000000     0.0420227  
H106     H      0.314980000000     0.362280000000     0.951600000000     0.116927   
H107     H      0.179260000000     0.166550000000     0.939190000000     0.0571098  
H108     H      0.207800000000     0.144730000000     0.048460000000     0.0559776  
H109     H      0.330750000000     0.254940000000     0.942300000000     0.0400683  
H110     H      0.138370000000     0.083190000000     0.050520000000     0.0283669  
N1       N      0.509360000000     0.498340000000     0.901740000000    -0.252547   
N2       N      0.508320000000     0.496030000000     0.605260000000    -0.207468   
N3       N      0.490390000000     0.479070000000     0.401890000000    -0.248908   
N4       N      0.494400000000     0.483760000000     0.105440000000    -0.207242   
N5       N      0.397260000000     0.588670000000     0.504150000000    -0.249113   
N6       N      0.103570000000     0.884380000000     0.504750000000    -0.189906   
N7       N      0.587560000000     0.573960000000     0.495170000000    -0.314654   
N8       N      0.888120000000     0.882650000000     0.490030000000    -0.19604    
N9       N      0.599890000000     0.386220000000     0.503910000000    -0.248169   
N10      N      0.895260000000     0.092250000000     0.504490000000    -0.189936   
N11      N      0.409930000000     0.401850000000     0.512550000000    -0.309349   
N12      N      0.107490000000     0.096040000000     0.519230000000    -0.196093   
N13      N      0.097740000000     0.880730000000     0.001770000000    -0.237374   
N14      N      0.395120000000     0.588830000000     0.003380000000    -0.199033   
N15      N      0.880090000000     0.894920000000     0.009100000000    -0.247103   
N16      N      0.584150000000     0.582600000000     0.010210000000    -0.259923   
N17      N      0.607520000000     0.395910000000     0.003960000000    -0.250592   
N18      N      0.903310000000     0.101790000000     0.003120000000    -0.188566   
N19      N      0.417250000000     0.401860000000     0.997620000000    -0.316998   
N20      N      0.119470000000     0.089170000000     0.996450000000    -0.196145   
O1       O      0.047260000000     0.934650000000     0.973380000000    -0.3497     
O2       O      0.949480000000     0.045170000000     0.974070000000    -0.389915   
O3       O      0.056950000000     0.040340000000     0.970430000000    -0.398314   
O4       O      0.939600000000     0.939590000000     0.977100000000    -0.405148   
O5       O      0.942180000000     0.944780000000     0.034780000000    -0.364545   
O6       O      0.063000000000     0.040780000000     0.028190000000    -0.405336   
O7       O      0.955650000000     0.049900000000     0.031660000000    -0.382303   
O8       O      0.049450000000     0.935560000000     0.031110000000    -0.391051   
O9       O      0.056450000000     0.940660000000     0.476110000000    -0.389949   
O10      O      0.950570000000     0.043740000000     0.475800000000    -0.389577   
O11      O      0.057710000000     0.046290000000     0.483430000000    -0.402057   
O12      O      0.948940000000     0.938070000000     0.468450000000    -0.401251   
O13      O      0.938850000000     0.931540000000     0.525770000000    -0.402776   
O14      O      0.050650000000     0.036680000000     0.540760000000    -0.401405   
O15      O      0.943150000000     0.036720000000     0.533240000000    -0.390065   
O16      O      0.046540000000     0.931230000000     0.533210000000    -0.390049   
O17      O      0.534690000000     0.525880000000     0.955860000000    -0.43878    
O18      O      0.527340000000     0.517240000000     0.055080000000    -0.478928   
O19      O      0.583050000000     0.476300000000     0.005330000000    -0.426499   
O20      O      0.478100000000     0.569040000000     0.004850000000    -0.465725   
O21      O      0.419240000000     0.508490000000     0.002130000000    -0.439627   
O22      O      0.524390000000     0.415660000000     0.002280000000    -0.478185   
O23      O      0.467060000000     0.458280000000     0.051450000000    -0.483566   
O24      O      0.476020000000     0.465500000000     0.952240000000    -0.456209   
O25      O      0.522680000000     0.513000000000     0.452270000000    -0.45815    
O26      O      0.535290000000     0.521780000000     0.551160000000    -0.483137   
O27      O      0.578650000000     0.467450000000     0.501670000000    -0.447997   
O28      O      0.479630000000     0.566360000000     0.502640000000    -0.476879   
O29      O      0.419000000000     0.507550000000     0.505110000000    -0.411052   
O30      O      0.517740000000     0.409070000000     0.505850000000    -0.434099   
O31      O      0.473540000000     0.464220000000     0.555050000000    -0.4871     
O32      O      0.464290000000     0.452310000000     0.456130000000    -0.405995   


