data_structure

_audit_creation_method RASPA-1.0
_audit_creation_date 2023-6-4
_audit_author_name 'Poobodin Mano'

_cell_length_a    26.824
_cell_length_b    26.7767
_cell_length_c    38.4404
_cell_angle_alpha 89.9988
_cell_angle_beta  89.9988
_cell_angle_gamma 93.6547
_cell_volume      27554

_symmetry_cell_setting          triclinic
_symmetry_space_group_name_Hall 'P 1'
_symmetry_space_group_name_H-M  'P 1'
_symmetry_Int_Tables_number     1

_symmetry_equiv_pos_as_xyz 'x,y,z'

loop_
_atom_site_label
_atom_site_type_symbol
_atom_site_fract_x
_atom_site_fract_y
_atom_site_fract_z
_atom_site_charge
C1       C      0.078610000000     0.970010000000     0.017430000000     0.401989   
C2       C      0.931470000000     0.097600000000     0.017710000000     0.403185   
C3       C      0.069310000000     0.111430000000     0.025980000000     0.425819   
C4       C      0.939050000000     0.956720000000     0.010000000000     0.424835   
C5       C      0.068570000000     0.980190000000     0.509280000000     0.399874   
C6       C      0.933270000000     0.120360000000     0.510170000000     0.407289   
C7       C      0.073020000000     0.121060000000     0.501670000000     0.412925   
C8       C      0.928160000000     0.978900000000     0.517580000000     0.412645   
C9       C      0.495260000000     0.527170000000     0.943800000000     0.485738   
C10      C      0.506120000000     0.536970000000     0.075740000000     0.491619   
C11      C      0.568420000000     0.465200000000     0.008550000000     0.475124   
C12      C      0.438400000000     0.599130000000     0.011750000000     0.474643   
C13      C      0.508410000000     0.557900000000     0.443470000000     0.459086   
C14      C      0.493590000000     0.545820000000     0.575190000000     0.473812   
C15      C      0.563200000000     0.480700000000     0.508700000000     0.446679   
C16      C      0.432130000000     0.612390000000     0.511490000000     0.473864   
C17      C      0.455260000000     0.496710000000     0.853550000000    -0.118448   
C18      C      0.522800000000     0.574260000000     0.630710000000     0.0802517  
C19      C      0.455860000000     0.512250000000     0.627050000000     0.083265   
C20      C      0.520710000000     0.572860000000     0.666990000000    -0.0938298  
C21      C      0.488550000000     0.581950000000     0.742370000000    -0.0343     
C22      C      0.488510000000     0.579760000000     0.778690000000    -0.0306448  
C23      C      0.483550000000     0.537910000000     0.722440000000    -0.00393039 
C24      C      0.452940000000     0.509710000000     0.663340000000    -0.0915311  
C25      C      0.483650000000     0.533450000000     0.796040000000    -0.00931543 
C26      C      0.519970000000     0.562780000000     0.853120000000    -0.101866   
C27      C      0.477860000000     0.489410000000     0.776080000000    -0.0298088  
C28      C      0.522400000000     0.559990000000     0.889280000000     0.0847175  
C29      C      0.458860000000     0.493940000000     0.889980000000     0.174101   
C30      C      0.477710000000     0.491620000000     0.739710000000    -0.0334442  
C31      C      0.485590000000     0.540260000000     0.683790000000     0.0536268  
C32      C      0.486010000000     0.531140000000     0.834730000000     0.0679587  
C33      C      0.543300000000     0.585800000000     0.162460000000    -0.118636   
C34      C      0.477430000000     0.529090000000     0.388660000000     0.0793839  
C35      C      0.547650000000     0.587300000000     0.390460000000     0.0817267  
C36      C      0.477740000000     0.530050000000     0.352360000000    -0.0942817  
C37      C      0.467500000000     0.563190000000     0.277750000000    -0.0343729  
C38      C      0.466560000000     0.562750000000     0.241440000000    -0.0319113  
C39      C      0.513030000000     0.563110000000     0.295860000000    -0.00508073 
C40      C      0.549120000000     0.589100000000     0.354100000000    -0.0929186  
C41      C      0.511130000000     0.562270000000     0.222250000000    -0.00968833 
C42      C      0.474010000000     0.524660000000     0.167860000000    -0.10103    
C43      C      0.556830000000     0.563760000000     0.240260000000    -0.0317145  
C44      C      0.473250000000     0.519230000000     0.131840000000     0.08571    
C45      C      0.541140000000     0.580540000000     0.126130000000     0.170057   
C46      C      0.557770000000     0.564140000000     0.276690000000    -0.034216   
C47      C      0.513380000000     0.560860000000     0.334560000000     0.0528777  
C48      C      0.509530000000     0.557740000000     0.183690000000     0.0660763  
C49      C      0.309600000000     0.669680000000     0.510290000000    -0.115523   
C50      C      0.126980000000     0.931880000000     0.539440000000     0.0720082  
C51      C      0.115920000000     0.921170000000     0.478780000000     0.0714374  
C52      C      0.162920000000     0.896040000000     0.539800000000    -0.0894862  
C53      C      0.257480000000     0.839660000000     0.529670000000    -0.0347533  
C54      C      0.293200000000     0.803550000000     0.529900000000    -0.0313589  
C55      C      0.214170000000     0.833380000000     0.508990000000    -0.0037868  
C56      C      0.151530000000     0.884930000000     0.478260000000    -0.0898301  
C57      C      0.286660000000     0.759830000000     0.509600000000    -0.00842223 
C58      C      0.375730000000     0.734120000000     0.511880000000    -0.0971362  
C59      C      0.243400000000     0.753570000000     0.488870000000    -0.0315256  
C60      C      0.410460000000     0.697190000000     0.512860000000     0.0826499  
C61      C      0.345080000000     0.633090000000     0.512050000000     0.168001   
C62      C      0.207800000000     0.789830000000     0.488490000000    -0.0344785  
C63      C      0.175800000000     0.871860000000     0.509000000000     0.0484318  
C64      C      0.324470000000     0.720800000000     0.510320000000     0.0638196  
C65      C      0.626350000000     0.712360000000     0.496620000000    -0.115537   
C66      C      0.880660000000     0.921480000000     0.553560000000     0.0776794  
C67      C      0.863100000000     0.926130000000     0.493080000000     0.0772674  
C68      C      0.843040000000     0.883610000000     0.557690000000    -0.0945169  
C69      C      0.786470000000     0.778940000000     0.539140000000    -0.0350623  
C70      C      0.749280000000     0.740210000000     0.537280000000    -0.0319112  
C71      C      0.774800000000     0.828180000000     0.532210000000    -0.00625225 
C72      C      0.824620000000     0.889240000000     0.496450000000    -0.0955114  
C73      C      0.699960000000     0.750530000000     0.528870000000    -0.010028   
C74      C      0.659230000000     0.667030000000     0.544920000000    -0.0977918  
C75      C      0.688170000000     0.800460000000     0.523890000000    -0.0319142  
C76      C      0.621970000000     0.629410000000     0.539460000000     0.0783874  
C77      C      0.588830000000     0.674100000000     0.492020000000     0.161266   
C78      C      0.725460000000     0.838930000000     0.525160000000    -0.0345816  
C79      C      0.814650000000     0.867690000000     0.528930000000     0.0541399  
C80      C      0.661300000000     0.709440000000     0.523580000000     0.0622923  
C81      C      0.843710000000     0.212140000000     0.539570000000    -0.114777   
C82      C      0.587040000000     0.396030000000     0.501120000000     0.0794033  
C83      C      0.649240000000     0.461670000000     0.508860000000     0.0751499  
C84      C      0.623420000000     0.360690000000     0.500850000000    -0.0914729  
C85      C      0.706820000000     0.295550000000     0.526560000000    -0.0342579  
C86      C      0.743290000000     0.260250000000     0.527490000000    -0.031599   
C87      C      0.712950000000     0.338340000000     0.505330000000    -0.00457851 
C88      C      0.686750000000     0.427340000000     0.508000000000    -0.0917447  
C89      C      0.786390000000     0.266190000000     0.506670000000    -0.00892043 
C90      C      0.844490000000     0.208800000000     0.477330000000    -0.0975191  
C91      C      0.792300000000     0.308680000000     0.485130000000    -0.0320373  
C92      C      0.880410000000     0.173030000000     0.479030000000     0.0762603  
C93      C      0.881150000000     0.177560000000     0.540700000000     0.165869   
C94      C      0.756300000000     0.344600000000     0.484760000000    -0.0351399  
C95      C      0.674010000000     0.375960000000     0.504690000000     0.0506586  
C96      C      0.825210000000     0.228460000000     0.507810000000     0.0628291  
C97      C      0.383480000000     0.377610000000     0.510360000000    -0.115137   
C98      C      0.126770000000     0.185650000000     0.525910000000     0.0781628  
C99      C      0.129940000000     0.168370000000     0.465330000000     0.0767593  
C100     C      0.163540000000     0.224230000000     0.522210000000    -0.0942891  
C101     C      0.214700000000     0.323280000000     0.495100000000    -0.0333041  
C102     C      0.253430000000     0.360380000000     0.494520000000    -0.031547   
C103     C      0.223790000000     0.274150000000     0.485640000000    -0.00658995 
C104     C      0.167620000000     0.206010000000     0.460860000000    -0.0955476  
C105     C      0.301730000000     0.348380000000     0.485120000000    -0.00911725 
C106     C      0.341510000000     0.432160000000     0.471430000000    -0.0946573  
C107     C      0.310590000000     0.299470000000     0.474880000000    -0.0327184  
C108     C      0.379680000000     0.468720000000     0.476930000000     0.0876848  
C109     C      0.421140000000     0.415560000000     0.515770000000     0.164955   
C110     C      0.271570000000     0.262540000000     0.474800000000    -0.0340376  
C111     C      0.184230000000     0.234390000000     0.489480000000     0.0544324  
C112     C      0.343270000000     0.386270000000     0.488430000000     0.0648797  
C113     C      0.318690000000     0.661760000000     0.012190000000    -0.11656    
C114     C      0.134580000000     0.920680000000     0.985820000000     0.0758746  
C115     C      0.133490000000     0.917220000000     0.047320000000     0.0730955  
C116     C      0.170900000000     0.885250000000     0.984630000000    -0.0879887  
C117     C      0.222610000000     0.786480000000     0.990970000000    -0.0340113  
C118     C      0.257620000000     0.749700000000     0.990390000000    -0.0307803  
C119     C      0.227500000000     0.826770000000     0.014510000000    -0.00334193 
C120     C      0.170440000000     0.882280000000     0.047070000000    -0.089144   
C121     C      0.299030000000     0.752470000000     0.012980000000    -0.00909535 
C122     C      0.387120000000     0.723660000000     0.014190000000    -0.0983652  
C123     C      0.304390000000     0.793150000000     0.036180000000    -0.0313314  
C124     C      0.420380000000     0.685230000000     0.013980000000     0.0812151  
C125     C      0.352590000000     0.623720000000     0.013170000000     0.17022    
C126     C      0.268880000000     0.829560000000     0.037150000000    -0.0349589  
C127     C      0.189390000000     0.865400000000     0.015450000000     0.0493664  
C128     C      0.335510000000     0.712280000000     0.012890000000     0.0645083  
C129     C      0.854330000000     0.859050000000     0.971320000000    -0.121269   
C130     C      0.598550000000     0.651520000000     0.033690000000     0.0355022  
C131     C      0.618000000000     0.624240000000     0.976590000000     0.067318   
C132     C      0.634610000000     0.691050000000     0.031040000000    -0.0611419  
C133     C      0.694480000000     0.785280000000     0.009910000000    -0.0376217  
C134     C      0.733210000000     0.822300000000     0.009400000000    -0.029234   
C135     C      0.702450000000     0.737110000000     0.997630000000     0.00154376 
C136     C      0.654260000000     0.663120000000     0.973010000000    -0.0812363  
C137     C      0.780240000000     0.811600000000     0.996470000000    -0.0120984  
C138     C      0.832370000000     0.872180000000     0.031210000000    -0.104151   
C139     C      0.787770000000     0.764030000000     0.983060000000    -0.0288069  
C140     C      0.873050000000     0.906330000000     0.034290000000     0.0838846  
C141     C      0.895580000000     0.893240000000     0.975110000000     0.171592   
C142     C      0.749130000000     0.726940000000     0.983720000000    -0.0364542  
C143     C      0.662800000000     0.696960000000     0.000420000000     0.039481   
C144     C      0.822390000000     0.848850000000     0.999400000000     0.0703396  
C145     C      0.623300000000     0.341300000000     0.010180000000    -0.116103   
C146     C      0.877740000000     0.149820000000     0.986570000000     0.0773932  
C147     C      0.876240000000     0.149470000000     0.048120000000     0.0738756  
C148     C      0.841550000000     0.185360000000     0.985720000000    -0.0879516  
C149     C      0.788120000000     0.284360000000     0.038430000000    -0.0343408  
C150     C      0.752870000000     0.320980000000     0.037110000000    -0.0312915  
C151     C      0.784290000000     0.242620000000     0.016060000000    -0.00333125 
C152     C      0.840490000000     0.185650000000     0.048190000000    -0.0891733  
C153     C      0.712350000000     0.316490000000     0.013790000000    -0.00872438 
C154     C      0.688750000000     0.406390000000     0.012500000000    -0.0981454  
C155     C      0.708310000000     0.274510000000     0.991670000000    -0.0307326  
C156     C      0.652700000000     0.442000000000     0.010280000000     0.0821408  
C157     C      0.587640000000     0.377630000000     0.007920000000     0.169274   
C158     C      0.743910000000     0.238320000000     0.992630000000    -0.0338942  
C159     C      0.822520000000     0.204110000000     0.016720000000     0.049957   
C160     C      0.674380000000     0.355230000000     0.012440000000     0.0644945  
C161     C      0.145280000000     0.226960000000     0.008390000000    -0.122064   
C162     C      0.419310000000     0.411910000000     0.043610000000     0.0917675  
C163     C      0.374020000000     0.446150000000     0.997180000000     0.0977436  
C164     C      0.380260000000     0.376690000000     0.050270000000    -0.0859339  
C165     C      0.303630000000     0.289920000000     0.043680000000    -0.0342117  
C166     C      0.263730000000     0.254390000000     0.046400000000    -0.0282994  
C167     C      0.294890000000     0.339990000000     0.036350000000    -0.000779478
C168     C      0.334300000000     0.411330000000     0.002680000000    -0.081529   
C169     C      0.214870000000     0.268520000000     0.041440000000    -0.0121851  
C170     C      0.164940000000     0.195450000000     0.065150000000    -0.104778   
C171     C      0.205840000000     0.318770000000     0.035750000000    -0.0283621  
C172     C      0.128020000000     0.157320000000     0.060740000000     0.0841766  
C173     C      0.108280000000     0.188380000000     0.004520000000     0.172651   
C174     C      0.245630000000     0.354420000000     0.033480000000    -0.0342343  
C175     C      0.336980000000     0.376570000000     0.029830000000     0.0567237  
C176     C      0.174010000000     0.230100000000     0.038610000000     0.0712787  
Cu1      Cu     0.008220000000     0.037690000000     0.985930000000     0.878042   
Cu2      Cu     0.001540000000     0.029610000000     0.049690000000     0.846706   
Cu3      Cu     0.996710000000     0.046440000000     0.477810000000     0.843288   
Cu4      Cu     0.004670000000     0.053380000000     0.541500000000     0.863369   
Cu5      Cu     0.541170000000     0.567560000000     0.007830000000     1.17631    
Cu6      Cu     0.464620000000     0.495850000000     0.012660000000     1.19783    
Cu7      Cu     0.536110000000     0.586090000000     0.510950000000     1.16698    
Cu8      Cu     0.464820000000     0.511130000000     0.506550000000     1.1862     
H1       H      0.429860000000     0.487990000000     0.612220000000     0.0394552  
H2       H      0.549330000000     0.585850000000     0.901980000000     0.0245475  
H3       H      0.474370000000     0.456970000000     0.725130000000     0.0441786  
H4       H      0.492110000000     0.614470000000     0.793200000000     0.0402283  
H5       H      0.545230000000     0.589400000000     0.839670000000     0.0577474  
H6       H      0.492260000000     0.618250000000     0.729860000000     0.0412918  
H7       H      0.428620000000     0.471490000000     0.840070000000     0.0815432  
H8       H      0.424910000000     0.484300000000     0.675260000000     0.0605531  
H9       H      0.547110000000     0.596670000000     0.681780000000     0.0557692  
H10      H      0.474750000000     0.453060000000     0.788530000000     0.0447724  
H11      H      0.550810000000     0.599870000000     0.618870000000     0.0260847  
H12      H      0.577180000000     0.608220000000     0.404430000000     0.0298897  
H13      H      0.445730000000     0.492130000000     0.121000000000     0.0281373  
H14      H      0.593460000000     0.563690000000     0.289810000000     0.0402423  
H15      H      0.430790000000     0.562610000000     0.228360000000     0.0406243  
H16      H      0.447520000000     0.501890000000     0.183300000000     0.0581849  
H17      H      0.432410000000     0.563570000000     0.291670000000     0.0408735  
H18      H      0.570530000000     0.612590000000     0.173900000000     0.0757303  
H19      H      0.577810000000     0.612910000000     0.341450000000     0.0573887  
H20      H      0.450200000000     0.506530000000     0.338360000000     0.0551403  
H21      H      0.591780000000     0.562950000000     0.226230000000     0.0423706  
H22      H      0.448580000000     0.505260000000     0.401240000000     0.024494   
H23      H      0.098470000000     0.930070000000     0.454310000000     0.0272879  
H24      H      0.449630000000     0.710010000000     0.513280000000     0.0356096  
H25      H      0.174830000000     0.783300000000     0.472460000000     0.0406111  
H26      H      0.325660000000     0.809620000000     0.546480000000     0.0404613  
H27      H      0.389290000000     0.773090000000     0.511700000000     0.0589865  
H28      H      0.264110000000     0.872840000000     0.545540000000     0.0408649  
H29      H      0.270190000000     0.657930000000     0.510480000000     0.0785041  
H30      H      0.160470000000     0.867820000000     0.453700000000     0.0540028  
H31      H      0.180000000000     0.886890000000     0.564330000000     0.0554505  
H32      H      0.237160000000     0.720720000000     0.472640000000     0.0424685  
H33      H      0.118350000000     0.949280000000     0.564000000000     0.0296204  
H34      H      0.869910000000     0.941900000000     0.467410000000     0.02684    
H35      H      0.620140000000     0.596740000000     0.556060000000     0.0138735  
H36      H      0.716050000000     0.876970000000     0.519920000000     0.0426884  
H37      H      0.759610000000     0.702130000000     0.540980000000     0.0386945  
H38      H      0.685460000000     0.663310000000     0.566040000000     0.0550915  
H39      H      0.824660000000     0.770250000000     0.544340000000     0.0416067  
H40      H      0.628670000000     0.743980000000     0.479000000000     0.076693   
H41      H      0.803120000000     0.877200000000     0.473740000000     0.0570651  
H42      H      0.835880000000     0.867250000000     0.583120000000     0.0585983  
H43      H      0.650280000000     0.809740000000     0.518290000000     0.0422427  
H44      H      0.901980000000     0.933270000000     0.576410000000     0.0304771  
H45      H      0.660900000000     0.500860000000     0.512440000000     0.0250896  
H46      H      0.893180000000     0.158570000000     0.454470000000     0.0272742  
H47      H      0.762040000000     0.376970000000     0.467990000000     0.0402338  
H48      H      0.737490000000     0.227880000000     0.544260000000     0.0440794  
H49      H      0.831180000000     0.220290000000     0.452140000000     0.0563195  
H50      H      0.674020000000     0.289710000000     0.542860000000     0.0439071  
H51      H      0.830440000000     0.227660000000     0.563650000000     0.079847   
H52      H      0.725450000000     0.440910000000     0.510800000000     0.0553109  
H53      H      0.611970000000     0.321550000000     0.496960000000     0.0573618  
H54      H      0.825210000000     0.314540000000     0.468940000000     0.0402557  
H55      H      0.548980000000     0.382310000000     0.495810000000     0.0313269  
H56      H      0.117600000000     0.147160000000     0.442540000000     0.0264816  
H57      H      0.378760000000     0.504220000000     0.463630000000     0.0236067  
H58      H      0.279040000000     0.224610000000     0.467610000000     0.0411845  
H59      H      0.246160000000     0.397940000000     0.502720000000     0.048044   
H60      H      0.310860000000     0.439650000000     0.454230000000     0.0620138  
H61      H      0.177880000000     0.332640000000     0.503520000000     0.0438111  
H62      H      0.384780000000     0.342000000000     0.523610000000     0.0788138  
H63      H      0.183280000000     0.213250000000     0.435230000000     0.0561317  
H64      H      0.176180000000     0.245590000000     0.544850000000     0.0601373  
H65      H      0.347760000000     0.289780000000     0.467540000000     0.0409324  
H66      H      0.111620000000     0.178700000000     0.551740000000     0.032518   
H67      H      0.119620000000     0.928630000000     0.072400000000     0.0278017  
H68      H      0.459950000000     0.696420000000     0.014320000000     0.029316   
H69      H      0.274070000000     0.860210000000     0.055450000000     0.0408014  
H70      H      0.252400000000     0.719100000000     0.972050000000     0.0446019  
H71      H      0.401940000000     0.762240000000     0.014730000000     0.0578419  
H72      H      0.191110000000     0.782850000000     0.973330000000     0.0441833  
H73      H      0.278930000000     0.651570000000     0.012390000000     0.0798267  
H74      H      0.183300000000     0.867790000000     0.071570000000     0.0549789  
H75      H      0.184710000000     0.873780000000     0.959580000000     0.0581139  
H76      H      0.335560000000     0.796310000000     0.054130000000     0.0406303  
H77      H      0.121580000000     0.934770000000     0.961220000000     0.0359886  
H78      H      0.611900000000     0.597840000000     0.955530000000     0.0193737  
H79      H      0.878470000000     0.924520000000     0.059340000000     0.0261041  
H80      H      0.756350000000     0.689860000000     0.974500000000     0.0430847  
H81      H      0.726700000000     0.859070000000     0.019550000000     0.0401455  
H82      H      0.808950000000     0.863920000000     0.053720000000     0.0591551  
H83      H      0.658500000000     0.794150000000     0.020210000000     0.0420575  
H84      H      0.847950000000     0.839620000000     0.946830000000     0.0814207  
H85      H      0.675280000000     0.666760000000     0.948980000000     0.052393   
H86      H      0.641220000000     0.715840000000     0.053050000000     0.0557806  
H87      H      0.824050000000     0.754940000000     0.973400000000     0.043342   
H88      H      0.577440000000     0.646130000000     0.058050000000     0.130027   
H89      H      0.888900000000     0.136340000000     0.073090000000     0.0279444  
H90      H      0.666130000000     0.481060000000     0.010710000000     0.0306379  
H91      H      0.739500000000     0.206580000000     0.975180000000     0.0427482  
H92      H      0.757020000000     0.352600000000     0.054670000000     0.0410053  
H93      H      0.727870000000     0.419030000000     0.013800000000     0.0589557  
H94      H      0.818890000000     0.289150000000     0.056610000000     0.0419343  
H95      H      0.610870000000     0.301990000000     0.009650000000     0.0794747  
H96      H      0.826600000000     0.198640000000     0.072820000000     0.0548823  
H97      H      0.829210000000     0.198730000000     0.960760000000     0.0588421  
H98      H      0.677910000000     0.269940000000     0.973160000000     0.0444135  
H99      H      0.891510000000     0.136980000000     0.961830000000     0.0361685  
H100     H      0.371710000000     0.473980000000     0.976970000000     0.0425776  
H101     H      0.122990000000     0.130140000000     0.081570000000     0.0250313  
H102     H      0.237900000000     0.393040000000     0.028680000000     0.048181   
H103     H      0.271150000000     0.215520000000     0.050520000000     0.0419846  
H104     H      0.186700000000     0.197450000000     0.088920000000     0.0588949  
H105     H      0.341260000000     0.277770000000     0.045730000000     0.046487   
H106     H      0.151380000000     0.254620000000     0.987970000000     0.084201   
H107     H      0.301900000000     0.411680000000     0.985890000000     0.0682385  
H108     H      0.383480000000     0.350640000000     0.071590000000     0.0584845  
H109     H      0.168110000000     0.330140000000     0.032180000000     0.0443993  
H110     H      0.452500000000     0.412990000000     0.059650000000     0.0223811  
N1       N      0.492060000000     0.526320000000     0.907950000000    -0.214338   
N2       N      0.490660000000     0.544170000000     0.610840000000    -0.20363    
N3       N      0.428210000000     0.455700000000     0.907230000000    -0.0338924  
N4       N      0.507120000000     0.545710000000     0.111040000000    -0.21427    
N5       N      0.511130000000     0.558650000000     0.407680000000    -0.201035   
N6       N      0.575260000000     0.611550000000     0.105310000000    -0.0231466  
N7       N      0.395820000000     0.646940000000     0.512460000000    -0.209494   
N8       N      0.103620000000     0.944570000000     0.509150000000    -0.190202   
N9       N      0.326570000000     0.581860000000     0.515770000000    -0.0323717  
N10      N      0.587340000000     0.634110000000     0.514010000000    -0.278012   
N11      N      0.890740000000     0.942290000000     0.521440000000    -0.195421   
N12      N      0.552180000000     0.678530000000     0.464720000000    -0.0604145  
N13      N      0.898790000000     0.156900000000     0.510300000000    -0.198182   
N14      N      0.599440000000     0.446120000000     0.506560000000    -0.196875   
N15      N      0.901030000000     0.166210000000     0.574200000000    -0.0311844  
N16      N      0.417600000000     0.460240000000     0.499250000000    -0.278614   
N17      N      0.109880000000     0.158190000000     0.497640000000    -0.195489   
N18      N      0.461790000000     0.407110000000     0.539350000000    -0.0604954  
N19      N      0.403780000000     0.635460000000     0.013130000000    -0.209921   
N20      N      0.115520000000     0.936310000000     0.016910000000    -0.188915   
N21      N      0.331930000000     0.573130000000     0.016100000000    -0.0319968  
N22      N      0.903450000000     0.918230000000     0.006330000000    -0.205934   
N23      N      0.590610000000     0.619350000000     0.006270000000    -0.248122   
N24      N      0.930910000000     0.898020000000     0.946990000000    -0.0323037  
N25      N      0.602370000000     0.428260000000     0.008540000000    -0.210114   
N26      N      0.895120000000     0.131880000000     0.017530000000    -0.188681   
N27      N      0.536500000000     0.360130000000     0.002670000000    -0.0338068  
N28      N      0.101300000000     0.152620000000     0.030280000000    -0.206845   
N29      N      0.415160000000     0.445900000000     0.017710000000    -0.262493   
N30      N      0.075690000000     0.189800000000     0.974870000000    -0.0328735  
O1       O      0.064250000000     0.989570000000     0.988840000000    -0.384298   
O2       O      0.951460000000     0.084760000000     0.988910000000    -0.382868   
O3       O      0.057230000000     0.096380000000     0.995270000000    -0.384729   
O4       O      0.958040000000     0.978630000000     0.983030000000    -0.383729   
O5       O      0.951180000000     0.972320000000     0.040580000000    -0.406121   
O6       O      0.052290000000     0.087730000000     0.052840000000    -0.406397   
O7       O      0.946160000000     0.079030000000     0.046600000000    -0.388197   
O8       O      0.057930000000     0.981470000000     0.046350000000    -0.388478   
O9       O      0.047600000000     0.992660000000     0.480710000000    -0.390447   
O10      O      0.946890000000     0.101220000000     0.481200000000    -0.390763   
O11      O      0.053270000000     0.099530000000     0.474770000000    -0.401978   
O12      O      0.940850000000     0.994030000000     0.486960000000    -0.401707   
O13      O      0.950310000000     0.997870000000     0.544520000000    -0.397805   
O14      O      0.058210000000     0.108260000000     0.532340000000    -0.397426   
O15      O      0.951680000000     0.104880000000     0.538780000000    -0.369065   
O16      O      0.056840000000     0.001160000000     0.538020000000    -0.391481   
O17      O      0.526620000000     0.557740000000     0.958750000000    -0.481254   
O18      O      0.541610000000     0.553920000000     0.056680000000    -0.466908   
O19      O      0.583230000000     0.511050000000     0.004460000000    -0.457363   
O20      O      0.485210000000     0.611210000000     0.012840000000    -0.461485   
O21      O      0.424190000000     0.553130000000     0.009130000000    -0.447912   
O22      O      0.522080000000     0.454180000000     0.013670000000    -0.452837   
O23      O      0.469250000000     0.512880000000     0.061620000000    -0.474477   
O24      O      0.466740000000     0.498470000000     0.962380000000    -0.452509   
O25      O      0.526410000000     0.594390000000     0.462060000000    -0.448123   
O26      O      0.526890000000     0.574350000000     0.560380000000    -0.473147   
O27      O      0.575480000000     0.527170000000     0.504300000000    -0.465709   
O28      O      0.478120000000     0.626550000000     0.515180000000    -0.449566   
O29      O      0.420570000000     0.566230000000     0.506080000000    -0.449532   
O30      O      0.517520000000     0.467620000000     0.515980000000    -0.442211   
O31      O      0.463280000000     0.518660000000     0.556720000000    -0.451649   
O32      O      0.485320000000     0.520850000000     0.458430000000    -0.481224   
O33      O      0.449000000000     0.418020000000     0.921270000000    -0.0816056  
O34      O      0.380220000000     0.452450000000     0.901850000000    -0.102429   
O35      O      0.622280000000     0.602140000000     0.105230000000    -0.112375   
O36      O      0.557650000000     0.638910000000     0.080500000000    -0.185965   
O37      O      0.291530000000     0.563560000000     0.495160000000    -0.112187   
O38      O      0.336820000000     0.557320000000     0.543830000000    -0.0947939  
O39      O      0.546630000000     0.722540000000     0.451420000000    -0.115182   
O40      O      0.527080000000     0.640610000000     0.450090000000    -0.0132991  
O41      O      0.870940000000     0.150090000000     0.598870000000    -0.102736   
O42      O      0.946180000000     0.182950000000     0.582210000000    -0.0948972  
O43      O      0.455450000000     0.371750000000     0.562470000000    -0.111967   
O44      O      0.506490000000     0.429550000000     0.537020000000    -0.0151074  
O45      O      0.298260000000     0.556210000000     0.993970000000    -0.106092   
O46      O      0.338170000000     0.548440000000     0.044770000000    -0.0970397  
O47      O      0.915170000000     0.899210000000     0.915000000000    -0.10272    
O48      O      0.977860000000     0.891580000000     0.952830000000    -0.0950139  
O49      O      0.516390000000     0.325010000000     0.022510000000    -0.107878   
O50      O      0.513860000000     0.371450000000     0.974070000000    -0.0832862  
O51      O      0.093900000000     0.201920000000     0.944430000000    -0.100578   
O52      O      0.027530000000     0.188230000000     0.979400000000    -0.0952886  


