data_structure

_audit_creation_method RASPA-1.0
_audit_creation_date 2023-5-19
_audit_author_name 'Poobodin Mano'

_cell_length_a    22.1238
_cell_length_b    22.1255
_cell_length_c    22.1243
_cell_angle_alpha 89.9998
_cell_angle_beta  89.9998
_cell_angle_gamma 89.9998
_cell_volume      10829.8

_symmetry_cell_setting          triclinic
_symmetry_space_group_name_Hall 'P 1'
_symmetry_space_group_name_H-M  'P 1'
_symmetry_Int_Tables_number     1

_symmetry_equiv_pos_as_xyz 'x,y,z'

loop_
_atom_site_label
_atom_site_type_symbol
_atom_site_fract_x
_atom_site_fract_y
_atom_site_fract_z
_atom_site_charge
C1       C      0.117280000000     0.995850000000     0.497670000000     0.347435   
C2       C      0.877570000000     0.998860000000     0.497670000000     0.347559   
C3       C      0.999310000000     0.117210000000     0.497720000000     0.346273   
C4       C      0.995550000000     0.877500000000     0.497720000000     0.347619   
C5       C      0.997430000000     0.497360000000     0.377150000000     0.348236   
C6       C      0.997430000000     0.497360000000     0.616950000000     0.348431   
C7       C      0.999750000000     0.377480000000     0.497240000000     0.347097   
C8       C      0.995110000000     0.617240000000     0.497240000000     0.348239   
C9       C      0.497430000000     0.997360000000     0.616900000000     0.348517   
C10      C      0.497430000000     0.997360000000     0.377080000000     0.348498   
C11      C      0.617340000000     0.998100000000     0.497040000000     0.348483   
C12      C      0.377510000000     0.996620000000     0.497040000000     0.348474   
C13      C      0.497430000000     0.997360000000     0.116870000000     0.34752    
C14      C      0.497430000000     0.997360000000     0.877150000000     0.347659   
C15      C      0.498170000000     0.117220000000     0.997060000000     0.347864   
C16      C      0.496680000000     0.877500000000     0.997060000000     0.347945   
C17      C      0.997430000000     0.497360000000     0.116950000000     0.349227   
C18      C      0.997430000000     0.497360000000     0.877160000000     0.34821    
C19      C      0.117310000000     0.495020000000     0.997240000000     0.349142   
C20      C      0.877550000000     0.499700000000     0.997250000000     0.349194   
C21      C      0.498950000000     0.377510000000     0.997700000000     0.348346   
C22      C      0.495910000000     0.617210000000     0.997700000000     0.34829    
C23      C      0.377570000000     0.495460000000     0.997750000000     0.348105   
C24      C      0.617290000000     0.499270000000     0.997750000000     0.348208   
C25      C      0.779150000000     0.461230000000     0.036110000000    -0.00268878 
C26      C      0.811040000000     0.500630000000     0.997950000000    -0.0829687  
C27      C      0.778910000000     0.539980000000     0.959940000000    -0.00358774 
C28      C      0.715680000000     0.538940000000     0.959160000000    -0.00404449 
C29      C      0.683820000000     0.500030000000     0.997900000000    -0.0824126  
C30      C      0.716010000000     0.461670000000     0.036840000000    -0.0036431  
C31      C      0.215950000000     0.454740000000     0.959930000000    -0.00361429 
C32      C      0.183820000000     0.494090000000     0.997950000000    -0.082814   
C33      C      0.215710000000     0.533480000000     0.036120000000    -0.00270057 
C34      C      0.278860000000     0.533040000000     0.036850000000    -0.00361967 
C35      C      0.311040000000     0.494690000000     0.997900000000    -0.0823642  
C36      C      0.279180000000     0.455790000000     0.959150000000    -0.00399242 
C37      C      0.534230000000     0.715750000000     0.036750000000    -0.00342215 
C38      C      0.495820000000     0.683750000000     0.997680000000    -0.0826831  
C39      C      0.457600000000     0.715790000000     0.958450000000    -0.00396747 
C40      C      0.457100000000     0.778980000000     0.959000000000    -0.00402991 
C41      C      0.496310000000     0.810970000000     0.997300000000    -0.0826202  
C42      C      0.535210000000     0.778920000000     0.035820000000    -0.00343865 
C43      C      0.459630000000     0.215810000000     0.035810000000    -0.00349691 
C44      C      0.498550000000     0.183750000000     0.997300000000    -0.0824451  
C45      C      0.537780000000     0.215740000000     0.959020000000    -0.00405287 
C46      C      0.537280000000     0.278930000000     0.958460000000    -0.00390174 
C47      C      0.499050000000     0.310980000000     0.997680000000    -0.0827398  
C48      C      0.460620000000     0.278970000000     0.036740000000    -0.00331934 
C49      C      0.460250000000     0.037590000000     0.715430000000    -0.00246483 
C50      C      0.497430000000     0.997360000000     0.683420000000    -0.0829883  
C51      C      0.534610000000     0.957130000000     0.715430000000    -0.00320763 
C52      C      0.535390000000     0.957870000000     0.778610000000    -0.00412773 
C53      C      0.497430000000     0.997360000000     0.810630000000    -0.0823952  
C54      C      0.459470000000     0.036860000000     0.778610000000    -0.0034156  
C55      C      0.460260000000     0.957110000000     0.278570000000    -0.00308735 
C56      C      0.497430000000     0.997360000000     0.310580000000    -0.0829972  
C57      C      0.534590000000     0.037610000000     0.278570000000    -0.00235911 
C58      C      0.535380000000     0.036860000000     0.215390000000    -0.00340296 
C59      C      0.497430000000     0.997360000000     0.183380000000    -0.0822264  
C60      C      0.459470000000     0.957850000000     0.215390000000    -0.0041345  
C61      C      0.957910000000     0.459420000000     0.778640000000    -0.00400361 
C62      C      0.997430000000     0.497360000000     0.810650000000    -0.0824886  
C63      C      0.036950000000     0.535300000000     0.778640000000    -0.00336085 
C64      C      0.037690000000     0.534510000000     0.715450000000    -0.00252441 
C65      C      0.997430000000     0.497360000000     0.683450000000    -0.0829129  
C66      C      0.957170000000     0.460210000000     0.715460000000    -0.00318751 
C67      C      0.035450000000     0.536810000000     0.278630000000    -0.0033727  
C68      C      0.997430000000     0.497360000000     0.310640000000    -0.0824382  
C69      C      0.959420000000     0.457910000000     0.278630000000    -0.0040175  
C70      C      0.960210000000     0.457160000000     0.215450000000    -0.00304654 
C71      C      0.997430000000     0.497360000000     0.183450000000    -0.0830483  
C72      C      0.034660000000     0.537550000000     0.215450000000    -0.00234035 
C73      C      0.215790000000     0.035390000000     0.535510000000    -0.00344203 
C74      C      0.183800000000     0.995780000000     0.497660000000    -0.0821708  
C75      C      0.215840000000     0.956370000000     0.459620000000    -0.00421351 
C76      C      0.279040000000     0.955860000000     0.460220000000    -0.00312173 
C77      C      0.311000000000     0.996260000000     0.497270000000    -0.0830091  
C78      C      0.278960000000     0.036360000000     0.534540000000    -0.00233735 
C79      C      0.779020000000     0.038330000000     0.459610000000    -0.00339951 
C80      C      0.811060000000     0.998940000000     0.497650000000    -0.0823914  
C81      C      0.779060000000     0.959340000000     0.535530000000    -0.00412234 
C82      C      0.715900000000     0.958370000000     0.534560000000    -0.00316009 
C83      C      0.683850000000     0.998460000000     0.497260000000    -0.0829786  
C84      C      0.715820000000     0.038840000000     0.460200000000    -0.00249212 
C85      C      0.955820000000     0.779100000000     0.459210000000    -0.00404553 
C86      C      0.994790000000     0.810970000000     0.497880000000    -0.0824681  
C87      C      0.033230000000     0.778790000000     0.536740000000    -0.00354576 
C88      C      0.033670000000     0.715650000000     0.536020000000    -0.00272367 
C89      C      0.994190000000     0.683750000000     0.497930000000    -0.0828693  
C90      C      0.954770000000     0.715880000000     0.460000000000    -0.00371815 
C91      C      0.961190000000     0.279060000000     0.536020000000    -0.00431885 
C92      C      0.000670000000     0.310960000000     0.497930000000    -0.0803355  
C93      C      0.040090000000     0.278830000000     0.460000000000    -0.00395881 
C94      C      0.039040000000     0.215610000000     0.459210000000    -0.00440835 
C95      C      0.000070000000     0.183740000000     0.497880000000    -0.0797904  
C96      C      0.961630000000     0.215920000000     0.536740000000    -0.00522391 
Cu1      Cu     0.997430000000     0.997360000000     0.441670000000     0.837138   
Cu2      Cu     0.997430000000     0.997350000000     0.553660000000     0.839189   
Cu3      Cu     0.053480000000     0.498760000000     0.497050000000     0.842103   
Cu4      Cu     0.941380000000     0.495950000000     0.497050000000     0.840823   
Cu5      Cu     0.497750000000     0.941270000000     0.496990000000     0.841124   
Cu6      Cu     0.497100000000     0.053450000000     0.496990000000     0.842586   
Cu7      Cu     0.553430000000     0.997040000000     0.997010000000     0.838577   
Cu8      Cu     0.441430000000     0.997690000000     0.997010000000     0.838717   
Cu9      Cu     0.996020000000     0.441310000000     0.997050000000     0.840687   
Cu10     Cu     0.998850000000     0.553410000000     0.997050000000     0.839914   
Cu11     Cu     0.497430000000     0.497360000000     0.053690000000     0.842412   
Cu12     Cu     0.497430000000     0.497360000000     0.941690000000     0.839339   
H1       H      0.803090000000     0.430640000000     0.065930000000     0.0413399  
H2       H      0.802690000000     0.570530000000     0.929950000000     0.0420392  
H3       H      0.691680000000     0.569100000000     0.928960000000     0.0423475  
H4       H      0.692310000000     0.431170000000     0.066950000000     0.0423526  
H5       H      0.192180000000     0.424200000000     0.929940000000     0.0422262  
H6       H      0.191770000000     0.564070000000     0.065940000000     0.0414146  
H7       H      0.302550000000     0.563540000000     0.066960000000     0.0423653  
H8       H      0.303180000000     0.425640000000     0.928950000000     0.0424171  
H9       H      0.564280000000     0.691900000000     0.067190000000     0.0426438  
H10      H      0.427470000000     0.691960000000     0.928080000000     0.0423338  
H11      H      0.426880000000     0.802860000000     0.928750000000     0.0423964  
H12      H      0.565650000000     0.802730000000     0.065910000000     0.0425575  
H13      H      0.429180000000     0.192000000000     0.065880000000     0.0427598  
H14      H      0.568020000000     0.191860000000     0.928780000000     0.0425209  
H15      H      0.567420000000     0.302760000000     0.928110000000     0.0423473  
H16      H      0.430550000000     0.302820000000     0.067160000000     0.0426959  
H17      H      0.431050000000     0.068840000000     0.691560000000     0.0412077  
H18      H      0.563810000000     0.925880000000     0.691560000000     0.0411589  
H19      H      0.564850000000     0.926860000000     0.802470000000     0.042148   
H20      H      0.430000000000     0.067860000000     0.802470000000     0.0422272  
H21      H      0.431080000000     0.925860000000     0.302450000000     0.0410678  
H22      H      0.563780000000     0.068860000000     0.302450000000     0.041068   
H23      H      0.564840000000     0.067860000000     0.191520000000     0.0421452  
H24      H      0.430020000000     0.926850000000     0.191520000000     0.0421473  
H25      H      0.926900000000     0.429970000000     0.802510000000     0.0420336  
H26      H      0.067960000000     0.564740000000     0.802510000000     0.0420389  
H27      H      0.068960000000     0.563680000000     0.691580000000     0.0410181  
H28      H      0.925900000000     0.431040000000     0.691580000000     0.0410189  
H29      H      0.064950000000     0.567760000000     0.302500000000     0.0420804  
H30      H      0.929910000000     0.426960000000     0.302500000000     0.0420188  
H31      H      0.930970000000     0.425960000000     0.191570000000     0.0410016  
H32      H      0.063890000000     0.568760000000     0.191570000000     0.0410663  
H33      H      0.191910000000     0.066350000000     0.565010000000     0.0424165  
H34      H      0.191990000000     0.925320000000     0.430210000000     0.0421324  
H35      H      0.302940000000     0.924710000000     0.430950000000     0.0410574  
H36      H      0.302790000000     0.067720000000     0.563650000000     0.0412293  
H37      H      0.802870000000     0.069370000000     0.430180000000     0.0420111  
H38      H      0.802940000000     0.928390000000     0.565030000000     0.0422502  
H39      H      0.692060000000     0.927020000000     0.563670000000     0.0411834  
H40      H      0.691910000000     0.069980000000     0.430930000000     0.0410634  
H41      H      0.925590000000     0.803100000000     0.429060000000     0.0424381  
H42      H      0.063790000000     0.802480000000     0.566790000000     0.0423674  
H43      H      0.064320000000     0.691710000000     0.565780000000     0.0413689  
H44      H      0.924160000000     0.692110000000     0.430070000000     0.042188   
H45      H      0.930540000000     0.303010000000     0.565780000000     0.0415966  
H46      H      0.070700000000     0.302610000000     0.430070000000     0.0425032  
H47      H      0.069260000000     0.191610000000     0.429060000000     0.0428591  
H48      H      0.931070000000     0.192230000000     0.566790000000     0.0427064  
O1       O      0.088940000000     0.992150000000     0.447250000000    -0.380706   
O2       O      0.905910000000     0.002560000000     0.447250000000    -0.380064   
O3       O      0.002760000000     0.088890000000     0.447270000000    -0.379317   
O4       O      0.992090000000     0.905820000000     0.447270000000    -0.381034   
O5       O      0.000040000000     0.905800000000     0.548090000000    -0.380875   
O6       O      0.994810000000     0.088910000000     0.548090000000    -0.381057   
O7       O      0.905840000000     0.994590000000     0.548080000000    -0.381596   
O8       O      0.089010000000     0.000120000000     0.548080000000    -0.380092   
O9       O      0.047880000000     0.500910000000     0.405440000000    -0.381373   
O10      O      0.048010000000     0.497470000000     0.588670000000    -0.381394   
O11      O      0.049720000000     0.406810000000     0.494850000000    -0.379859   
O12      O      0.046170000000     0.589990000000     0.499370000000    -0.382688   
O13      O      0.945140000000     0.587900000000     0.494850000000    -0.380581   
O14      O      0.948690000000     0.404720000000     0.499370000000    -0.382919   
O15      O      0.946840000000     0.497240000000     0.588670000000    -0.38183    
O16      O      0.946980000000     0.493800000000     0.405440000000    -0.381851   
O17      O      0.498270000000     0.946790000000     0.588620000000    -0.382      
O18      O      0.497170000000     0.946780000000     0.405360000000    -0.381932   
O19      O      0.589350000000     0.947360000000     0.497560000000    -0.381929   
O20      O      0.406080000000     0.946210000000     0.496460000000    -0.381941   
O21      O      0.405510000000     0.047360000000     0.497560000000    -0.381422   
O22      O      0.588770000000     0.048510000000     0.496460000000    -0.381445   
O23      O      0.497690000000     0.047940000000     0.405360000000    -0.381412   
O24      O      0.496590000000     0.047930000000     0.588620000000    -0.381488   
O25      O      0.547870000000     0.001050000000     0.088570000000    -0.379991   
O26      O      0.547820000000     0.993100000000     0.905460000000    -0.381512   
O27      O      0.548420000000     0.088620000000     0.993060000000    -0.381133   
O28      O      0.547260000000     0.905530000000     0.000990000000    -0.380838   
O29      O      0.446440000000     0.906100000000     0.993060000000    -0.381617   
O30      O      0.447600000000     0.089190000000     0.000990000000    -0.380392   
O31      O      0.447040000000     0.001630000000     0.905460000000    -0.380411   
O32      O      0.446990000000     0.993670000000     0.088570000000    -0.381036   
O33      O      0.997310000000     0.446780000000     0.088670000000    -0.381684   
O34      O      0.993870000000     0.446910000000     0.905440000000    -0.381898   
O35      O      0.087970000000     0.445060000000     0.994850000000    -0.380372   
O36      O      0.904780000000     0.448640000000     0.999380000000    -0.383435   
O37      O      0.906890000000     0.549660000000     0.994850000000    -0.380823   
O38      O      0.090080000000     0.546080000000     0.999370000000    -0.383032   
O39      O      0.001000000000     0.547800000000     0.905440000000    -0.3809     
O40      O      0.997550000000     0.547940000000     0.088670000000    -0.381704   
O41      O      0.494750000000     0.405780000000     0.048100000000    -0.3817     
O42      O      0.500110000000     0.588940000000     0.048100000000    -0.381708   
O43      O      0.405870000000     0.499910000000     0.048120000000    -0.381719   
O44      O      0.588990000000     0.494810000000     0.048120000000    -0.381761   
O45      O      0.588970000000     0.502670000000     0.947300000000    -0.381375   
O46      O      0.405890000000     0.492060000000     0.947290000000    -0.381296   
O47      O      0.492270000000     0.588860000000     0.947280000000    -0.381628   
O48      O      0.502590000000     0.405860000000     0.947280000000    -0.381624   


