data_structure

_audit_creation_method RASPA-1.0
_audit_creation_date 2023-5-22
_audit_author_name 'Poobodin Mano'

_cell_length_a    30.8511
_cell_length_b    30.8511
_cell_length_c    30.7975
_cell_angle_alpha 89.9999
_cell_angle_beta  89.9998
_cell_angle_gamma 90
_cell_volume      29312.8

_symmetry_cell_setting          triclinic
_symmetry_space_group_name_Hall 'P 1'
_symmetry_space_group_name_H-M  'P 1'
_symmetry_Int_Tables_number     1

_symmetry_equiv_pos_as_xyz 'x,y,z'

loop_
_atom_site_label
_atom_site_type_symbol
_atom_site_fract_x
_atom_site_fract_y
_atom_site_fract_z
_atom_site_charge
C1       C      0.987300000000     0.073510000000     0.488080000000     0.356339   
C2       C      0.987290000000     0.901240000000     0.488080000000     0.356421   
C3       C      0.987290000000     0.987370000000     0.574360000000     0.356538   
C4       C      0.987300000000     0.987370000000     0.401800000000     0.356532   
C5       C      0.987310000000     0.401240000000     0.488020000000     0.356473   
C6       C      0.987300000000     0.573500000000     0.488020000000     0.356414   
C7       C      0.987310000000     0.487370000000     0.401740000000     0.356326   
C8       C      0.987300000000     0.487370000000     0.574300000000     0.356564   
C9       C      0.487310000000     0.073390000000     0.488100000000     0.356235   
C10      C      0.487360000000     0.901120000000     0.488100000000     0.35643    
C11      C      0.487340000000     0.987260000000     0.574370000000     0.356426   
C12      C      0.487330000000     0.987260000000     0.401810000000     0.356618   
C13      C      0.487310000000     0.401120000000     0.488460000000     0.35641    
C14      C      0.487360000000     0.573390000000     0.488460000000     0.356415   
C15      C      0.487330000000     0.487260000000     0.402190000000     0.356479   
C16      C      0.487340000000     0.487260000000     0.574750000000     0.356549   
C17      C      0.901170000000     0.987320000000     0.988090000000     0.356362   
C18      C      0.073440000000     0.987320000000     0.988070000000     0.35637    
C19      C      0.987290000000     0.987320000000     0.901800000000     0.356574   
C20      C      0.987320000000     0.987320000000     0.074360000000     0.356332   
C21      C      0.901190000000     0.487310000000     0.988040000000     0.356177   
C22      C      0.073460000000     0.487350000000     0.988020000000     0.356501   
C23      C      0.987320000000     0.487330000000     0.901740000000     0.356595   
C24      C      0.987340000000     0.487330000000     0.074300000000     0.356465   
C25      C      0.401170000000     0.987290000000     0.988080000000     0.356317   
C26      C      0.573440000000     0.987300000000     0.988100000000     0.356371   
C27      C      0.487320000000     0.987290000000     0.901810000000     0.356386   
C28      C      0.487300000000     0.987290000000     0.074370000000     0.356448   
C29      C      0.401190000000     0.487330000000     0.988440000000     0.356415   
C30      C      0.573460000000     0.487280000000     0.988470000000     0.35638    
C31      C      0.487340000000     0.487300000000     0.902190000000     0.356465   
C32      C      0.487320000000     0.487300000000     0.074750000000     0.356584   
C33      C      0.784810000000     0.449970000000     0.000330000000    -0.0655841  
C34      C      0.761490000000     0.487280000000     0.988230000000     0.0225377  
C35      C      0.784760000000     0.524590000000     0.976060000000    -0.0657727  
C36      C      0.830060000000     0.524680000000     0.976280000000     0.0235091  
C37      C      0.853220000000     0.487290000000     0.988090000000    -0.105121   
C38      C      0.830110000000     0.449890000000     0.999970000000     0.0233338  
C39      C      0.713170000000     0.487270000000     0.988310000000     0.0226362  
C40      C      0.689860000000     0.449960000000     0.976210000000    -0.0658219  
C41      C      0.644560000000     0.449870000000     0.976560000000     0.0235665  
C42      C      0.621430000000     0.487270000000     0.988430000000    -0.105302   
C43      C      0.644590000000     0.524660000000     0.000250000000     0.0236704  
C44      C      0.689890000000     0.524580000000     0.000480000000    -0.0657762  
C45      C      0.189850000000     0.524680000000     0.000290000000    -0.0656362  
C46      C      0.213170000000     0.487360000000     0.988190000000     0.0225516  
C47      C      0.189890000000     0.450060000000     0.976010000000    -0.0657836  
C48      C      0.144590000000     0.449970000000     0.976240000000     0.0235533  
C49      C      0.121430000000     0.487360000000     0.988060000000    -0.105221   
C50      C      0.144560000000     0.524760000000     0.999930000000     0.0234227  
C51      C      0.261490000000     0.487360000000     0.988270000000     0.0226326  
C52      C      0.284810000000     0.524670000000     0.976170000000    -0.0658522  
C53      C      0.330110000000     0.524740000000     0.976530000000     0.0236512  
C54      C      0.353220000000     0.487350000000     0.988400000000    -0.10536    
C55      C      0.330060000000     0.449950000000     0.000210000000     0.0236374  
C56      C      0.284760000000     0.450050000000     0.000440000000    -0.0657407  
C57      C      0.689840000000     0.024620000000     0.000240000000    -0.0655464  
C58      C      0.713140000000     0.987310000000     0.988100000000     0.0225041  
C59      C      0.689850000000     0.950000000000     0.975970000000    -0.0657693  
C60      C      0.644550000000     0.949910000000     0.976260000000     0.0235659  
C61      C      0.621410000000     0.987300000000     0.988100000000    -0.105285   
C62      C      0.644540000000     0.024700000000     0.999940000000     0.0234504  
C63      C      0.761460000000     0.987320000000     0.988100000000     0.0224873  
C64      C      0.784760000000     0.024630000000     0.975960000000    -0.0657227  
C65      C      0.830060000000     0.024720000000     0.976250000000     0.0235938  
C66      C      0.853200000000     0.987320000000     0.988100000000    -0.105277   
C67      C      0.830060000000     0.949930000000     0.999940000000     0.0234146  
C68      C      0.784770000000     0.950010000000     0.000240000000    -0.0656065  
C69      C      0.189850000000     0.024620000000     0.000200000000    -0.0655479  
C70      C      0.213150000000     0.987300000000     0.988060000000     0.0224906  
C71      C      0.189840000000     0.949990000000     0.975920000000    -0.0658233  
C72      C      0.144540000000     0.949920000000     0.976220000000     0.02362    
C73      C      0.121410000000     0.987310000000     0.988060000000    -0.105305   
C74      C      0.144550000000     0.024700000000     0.999910000000     0.0234766  
C75      C      0.261470000000     0.987300000000     0.988060000000     0.0225101  
C76      C      0.284770000000     0.024610000000     0.975930000000    -0.0657282  
C77      C      0.330070000000     0.024690000000     0.976220000000     0.0236041  
C78      C      0.353200000000     0.987290000000     0.988070000000    -0.10527    
C79      C      0.330060000000     0.949900000000     0.999910000000     0.0234001  
C80      C      0.284760000000     0.949980000000     0.000190000000    -0.0656228  
C81      C      0.524170000000     0.500810000000     0.285590000000    -0.0664065  
C82      C      0.487320000000     0.487280000000     0.262510000000     0.0228239  
C83      C      0.450480000000     0.473740000000     0.285590000000    -0.0663786  
C84      C      0.450350000000     0.474070000000     0.330980000000     0.0238341  
C85      C      0.487330000000     0.487260000000     0.354150000000    -0.105357   
C86      C      0.524310000000     0.500460000000     0.330970000000     0.0238467  
C87      C      0.487320000000     0.487290000000     0.214430000000     0.0228079  
C88      C      0.500880000000     0.524130000000     0.191340000000    -0.0664095  
C89      C      0.500530000000     0.524270000000     0.145960000000     0.023893   
C90      C      0.487310000000     0.487300000000     0.122780000000    -0.10547    
C91      C      0.474100000000     0.450320000000     0.145950000000     0.023873   
C92      C      0.473750000000     0.450460000000     0.191340000000    -0.0663827  
C93      C      0.524180000000     0.473720000000     0.691340000000    -0.0663518  
C94      C      0.487350000000     0.487280000000     0.714430000000     0.0227834  
C95      C      0.450520000000     0.500840000000     0.691340000000    -0.0663292  
C96      C      0.450370000000     0.500490000000     0.645950000000     0.0237853  
C97      C      0.487350000000     0.487260000000     0.622780000000    -0.105429   
C98      C      0.524320000000     0.474050000000     0.645950000000     0.0238567  
C99      C      0.487350000000     0.487290000000     0.762510000000     0.0228157  
C100     C      0.500890000000     0.450450000000     0.785600000000    -0.0663935  
C101     C      0.500540000000     0.450320000000     0.830980000000     0.0238629  
C102     C      0.487350000000     0.487300000000     0.854150000000    -0.10537    
C103     C      0.474160000000     0.524280000000     0.830970000000     0.0238405  
C104     C      0.473820000000     0.524140000000     0.785590000000    -0.0663856  
C105     C      0.500850000000     0.024120000000     0.190970000000    -0.0662973  
C106     C      0.487300000000     0.987280000000     0.214050000000     0.0227269  
C107     C      0.473760000000     0.950440000000     0.190960000000    -0.0663502  
C108     C      0.474100000000     0.950310000000     0.145580000000     0.0238355  
C109     C      0.487300000000     0.987290000000     0.122410000000    -0.105432   
C110     C      0.500500000000     0.024270000000     0.145580000000     0.0238756  
C111     C      0.487310000000     0.987270000000     0.262130000000     0.0227827  
C112     C      0.524150000000     0.000830000000     0.285210000000    -0.0663525  
C113     C      0.524290000000     0.000470000000     0.330600000000     0.0239771  
C114     C      0.487320000000     0.987260000000     0.353770000000    -0.105547   
C115     C      0.450350000000     0.974050000000     0.330600000000     0.0239247  
C116     C      0.450480000000     0.973710000000     0.285220000000    -0.0664329  
C117     C      0.450490000000     0.000790000000     0.690960000000    -0.0662663  
C118     C      0.487340000000     0.987280000000     0.714050000000     0.0227145  
C119     C      0.524190000000     0.973760000000     0.690960000000    -0.0663576  
C120     C      0.524330000000     0.974100000000     0.645580000000     0.0238187  
C121     C      0.487340000000     0.987270000000     0.622410000000    -0.105422   
C122     C      0.450350000000     0.000440000000     0.645580000000     0.0238998  
C123     C      0.487340000000     0.987290000000     0.762130000000     0.0227465  
C124     C      0.473750000000     0.024110000000     0.785210000000    -0.0662901  
C125     C      0.474090000000     0.024260000000     0.830600000000     0.0238698  
C126     C      0.487320000000     0.987290000000     0.853770000000    -0.105408   
C127     C      0.500570000000     0.950330000000     0.830600000000     0.0238517  
C128     C      0.500920000000     0.950460000000     0.785220000000    -0.0663854  
C129     C      0.450070000000     0.689820000000     0.500490000000    -0.0658676  
C130     C      0.487380000000     0.713090000000     0.488320000000     0.022687   
C131     C      0.524690000000     0.689780000000     0.476210000000    -0.0658214  
C132     C      0.524770000000     0.644480000000     0.476560000000     0.0235904  
C133     C      0.487370000000     0.621360000000     0.488430000000    -0.105276   
C134     C      0.449980000000     0.644520000000     0.500250000000     0.0236071  
C135     C      0.487380000000     0.761410000000     0.488250000000     0.0226579  
C136     C      0.450070000000     0.784690000000     0.476080000000    -0.0658268  
C137     C      0.449980000000     0.829990000000     0.476320000000     0.0236158  
C138     C      0.487370000000     0.853150000000     0.488140000000    -0.105295   
C139     C      0.524770000000     0.830030000000     0.500000000000     0.0236114  
C140     C      0.524690000000     0.784730000000     0.500350000000    -0.0658333  
C141     C      0.524600000000     0.189820000000     0.476070000000    -0.0658279  
C142     C      0.487290000000     0.213100000000     0.488250000000     0.0226489  
C143     C      0.449980000000     0.189780000000     0.500360000000    -0.0658133  
C144     C      0.449900000000     0.144480000000     0.500010000000     0.0235549  
C145     C      0.487300000000     0.121360000000     0.488130000000    -0.105189   
C146     C      0.524690000000     0.144520000000     0.476310000000     0.0235709  
C147     C      0.487290000000     0.261420000000     0.488320000000     0.0226849  
C148     C      0.524610000000     0.284690000000     0.500480000000    -0.0658656  
C149     C      0.524700000000     0.329990000000     0.500240000000     0.0235896  
C150     C      0.487300000000     0.353150000000     0.488430000000    -0.10526    
C151     C      0.449900000000     0.330030000000     0.476560000000     0.0235782  
C152     C      0.449980000000     0.284730000000     0.476220000000    -0.0658149  
C153     C      0.950480000000     0.473800000000     0.285150000000    -0.066339   
C154     C      0.987320000000     0.487360000000     0.262060000000     0.0227085  
C155     C      0.024160000000     0.500910000000     0.285150000000    -0.0662756  
C156     C      0.024290000000     0.500580000000     0.330540000000     0.0238596  
C157     C      0.987310000000     0.487370000000     0.353700000000    -0.105391   
C158     C      0.950340000000     0.474160000000     0.330530000000     0.0238216  
C159     C      0.987330000000     0.487350000000     0.213980000000     0.0227457  
C160     C      0.973790000000     0.450510000000     0.190900000000    -0.0663357  
C161     C      0.974140000000     0.450360000000     0.145520000000     0.023817   
C162     C      0.987340000000     0.487340000000     0.122340000000    -0.105412   
C163     C      0.000540000000     0.524320000000     0.145510000000     0.0239159  
C164     C      0.000880000000     0.524190000000     0.190890000000    -0.0663171  
C165     C      0.024140000000     0.473800000000     0.690890000000    -0.0663039  
C166     C      0.987290000000     0.487350000000     0.713980000000     0.0227236  
C167     C      0.950450000000     0.500890000000     0.690900000000    -0.0663694  
C168     C      0.950320000000     0.500560000000     0.645510000000     0.0238466  
C169     C      0.987300000000     0.487360000000     0.622340000000    -0.105476   
C170     C      0.024280000000     0.474160000000     0.645510000000     0.0239245  
C171     C      0.987300000000     0.487340000000     0.762060000000     0.0227675  
C172     C      0.000860000000     0.450500000000     0.785140000000    -0.0663449  
C173     C      0.000520000000     0.450360000000     0.830530000000     0.0239506  
C174     C      0.987310000000     0.487330000000     0.853710000000    -0.105554   
C175     C      0.974090000000     0.524310000000     0.830540000000     0.0238624  
C176     C      0.973740000000     0.524170000000     0.785150000000    -0.0663954  
C177     C      0.950470000000     0.973800000000     0.285200000000    -0.0664177  
C178     C      0.987310000000     0.987340000000     0.262120000000     0.0227032  
C179     C      0.024150000000     0.000900000000     0.285200000000    -0.066236   
C180     C      0.024290000000     0.000560000000     0.330590000000     0.0239617  
C181     C      0.987300000000     0.987360000000     0.353760000000    -0.105554   
C182     C      0.950330000000     0.974160000000     0.330590000000     0.0238918  
C183     C      0.987320000000     0.987340000000     0.214040000000     0.0226716  
C184     C      0.973760000000     0.950500000000     0.190960000000    -0.06636    
C185     C      0.974110000000     0.950350000000     0.145570000000     0.0238048  
C186     C      0.987320000000     0.987330000000     0.122390000000    -0.105498   
C187     C      0.000530000000     0.024310000000     0.145560000000     0.0239465  
C188     C      0.000870000000     0.024170000000     0.190950000000    -0.0662185  
C189     C      0.973730000000     0.024170000000     0.785210000000    -0.0663061  
C190     C      0.987280000000     0.987340000000     0.762120000000     0.0226789  
C191     C      0.000830000000     0.950490000000     0.785200000000    -0.066306   
C192     C      0.000490000000     0.950350000000     0.830580000000     0.023916   
C193     C      0.987280000000     0.987330000000     0.853760000000    -0.105549   
C194     C      0.974080000000     0.024310000000     0.830590000000     0.0239256  
C195     C      0.987280000000     0.987340000000     0.714040000000     0.0226726  
C196     C      0.950450000000     0.000900000000     0.690950000000    -0.0662671  
C197     C      0.950310000000     0.000570000000     0.645570000000     0.0239273  
C198     C      0.987290000000     0.987360000000     0.622390000000    -0.105624   
C199     C      0.024260000000     0.974150000000     0.645570000000     0.0239677  
C200     C      0.024120000000     0.973790000000     0.690950000000    -0.0663364  
C201     C      0.024600000000     0.784830000000     0.500200000000    -0.0657775  
C202     C      0.987290000000     0.761530000000     0.488050000000     0.0225826  
C203     C      0.949980000000     0.784830000000     0.475920000000    -0.0657828  
C204     C      0.949890000000     0.830130000000     0.476220000000     0.0235618  
C205     C      0.987290000000     0.853260000000     0.488070000000    -0.105299   
C206     C      0.024680000000     0.830120000000     0.499910000000     0.0236975  
C207     C      0.987290000000     0.713210000000     0.488040000000     0.0226057  
C208     C      0.024600000000     0.689920000000     0.475910000000    -0.0657391  
C209     C      0.024690000000     0.644620000000     0.476190000000     0.0236191  
C210     C      0.987290000000     0.621480000000     0.488030000000    -0.105295   
C211     C      0.949900000000     0.644610000000     0.499870000000     0.0236247  
C212     C      0.949980000000     0.689910000000     0.500170000000    -0.0658296  
C213     C      0.950000000000     0.284830000000     0.475890000000    -0.0657726  
C214     C      0.987310000000     0.261530000000     0.488040000000     0.0225702  
C215     C      0.024620000000     0.284830000000     0.500170000000    -0.0657666  
C216     C      0.024700000000     0.330130000000     0.499870000000     0.0236835  
C217     C      0.987310000000     0.353270000000     0.488020000000    -0.105353   
C218     C      0.949910000000     0.330130000000     0.476180000000     0.0235836  
C219     C      0.987310000000     0.213210000000     0.488050000000     0.0226422  
C220     C      0.949990000000     0.189920000000     0.500190000000    -0.0658949  
C221     C      0.949910000000     0.144620000000     0.499900000000     0.023669   
C222     C      0.987300000000     0.121480000000     0.488070000000    -0.105364   
C223     C      0.024700000000     0.144610000000     0.476220000000     0.023688   
C224     C      0.024620000000     0.189910000000     0.475920000000    -0.065802   
Cu1      Cu     0.947140000000     0.987370000000     0.488080000000     0.839586   
Cu2      Cu     0.027450000000     0.987370000000     0.488080000000     0.839815   
Cu3      Cu     0.947150000000     0.487370000000     0.488020000000     0.83955    
Cu4      Cu     0.027460000000     0.487370000000     0.488020000000     0.839791   
Cu5      Cu     0.447180000000     0.987240000000     0.488090000000     0.839713   
Cu6      Cu     0.527490000000     0.987270000000     0.488090000000     0.839722   
Cu7      Cu     0.447190000000     0.487260000000     0.488470000000     0.839774   
Cu8      Cu     0.527490000000     0.487250000000     0.488460000000     0.839707   
Cu9      Cu     0.987310000000     0.027480000000     0.988080000000     0.839621   
Cu10     Cu     0.987300000000     0.947170000000     0.988080000000     0.839555   
Cu11     Cu     0.987320000000     0.527490000000     0.988020000000     0.839552   
Cu12     Cu     0.987340000000     0.447180000000     0.988020000000     0.839615   
Cu13     Cu     0.487300000000     0.027450000000     0.988090000000     0.839786   
Cu14     Cu     0.487310000000     0.947140000000     0.988090000000     0.839588   
Cu15     Cu     0.487340000000     0.527460000000     0.988470000000     0.839639   
Cu16     Cu     0.487320000000     0.447150000000     0.988470000000     0.839665   
H1       H      0.768050000000     0.553680000000     0.965750000000     0.0463801  
H2       H      0.846920000000     0.553930000000     0.966610000000     0.0347665  
H3       H      0.847000000000     0.420650000000     0.009590000000     0.0348724  
H4       H      0.768140000000     0.420870000000     0.010680000000     0.0463699  
H5       H      0.706530000000     0.420860000000     0.965850000000     0.0463842  
H6       H      0.627670000000     0.420630000000     0.966940000000     0.0347654  
H7       H      0.627720000000     0.553910000000     0.009920000000     0.0347675  
H8       H      0.706590000000     0.553680000000     0.010790000000     0.0464145  
H9       H      0.206590000000     0.420960000000     0.965710000000     0.0463869  
H10      H      0.127720000000     0.420730000000     0.966570000000     0.0347753  
H11      H      0.127660000000     0.554010000000     0.009560000000     0.0348613  
H12      H      0.206530000000     0.553770000000     0.010640000000     0.046393   
H13      H      0.268140000000     0.553770000000     0.965810000000     0.0463939  
H14      H      0.347010000000     0.553980000000     0.966900000000     0.034738   
H15      H      0.346920000000     0.420710000000     0.009880000000     0.0347732  
H16      H      0.268050000000     0.420950000000     0.010750000000     0.0464028  
H17      H      0.706550000000     0.920900000000     0.965640000000     0.0463598  
H18      H      0.627680000000     0.920660000000     0.966610000000     0.0347549  
H19      H      0.627660000000     0.053940000000     0.009590000000     0.0348526  
H20      H      0.706530000000     0.053720000000     0.010560000000     0.0463747  
H21      H      0.768070000000     0.053720000000     0.965630000000     0.046385   
H22      H      0.846940000000     0.053960000000     0.966600000000     0.0347579  
H23      H      0.846950000000     0.920690000000     0.009590000000     0.0348519  
H24      H      0.768080000000     0.920910000000     0.010570000000     0.0463668  
H25      H      0.206530000000     0.920900000000     0.965590000000     0.0463979  
H26      H      0.127660000000     0.920670000000     0.966570000000     0.0347517  
H27      H      0.127680000000     0.053950000000     0.009560000000     0.0348565  
H28      H      0.206550000000     0.053710000000     0.010530000000     0.0463813  
H29      H      0.268080000000     0.053700000000     0.965590000000     0.0463869  
H30      H      0.346950000000     0.053930000000     0.966580000000     0.0347631  
H31      H      0.346930000000     0.920650000000     0.009550000000     0.0348504  
H32      H      0.268060000000     0.920890000000     0.010520000000     0.0463804  
H33      H      0.421570000000     0.463410000000     0.268510000000     0.0473839  
H34      H      0.421400000000     0.463590000000     0.347890000000     0.0347122  
H35      H      0.553260000000     0.510940000000     0.347890000000     0.0347096  
H36      H      0.553070000000     0.511150000000     0.268510000000     0.0473969  
H37      H      0.511230000000     0.553020000000     0.208430000000     0.0474     
H38      H      0.511030000000     0.553210000000     0.129050000000     0.0346975  
H39      H      0.463600000000     0.421380000000     0.129030000000     0.03471    
H40      H      0.463400000000     0.421560000000     0.208420000000     0.0473901  
H41      H      0.421620000000     0.511200000000     0.708420000000     0.0473659  
H42      H      0.421440000000     0.510980000000     0.629040000000     0.0347218  
H43      H      0.553260000000     0.463550000000     0.629040000000     0.0347022  
H44      H      0.553080000000     0.463370000000     0.708430000000     0.0473702  
H45      H      0.511220000000     0.421540000000     0.768520000000     0.0473832  
H46      H      0.511020000000     0.421370000000     0.847900000000     0.0347042  
H47      H      0.463680000000     0.553230000000     0.847880000000     0.0347035  
H48      H      0.463480000000     0.553040000000     0.768500000000     0.0473807  
H49      H      0.463420000000     0.921530000000     0.208040000000     0.0473676  
H50      H      0.463610000000     0.921370000000     0.128660000000     0.0347129  
H51      H      0.510980000000     0.053210000000     0.128670000000     0.0347133  
H52      H      0.511190000000     0.053020000000     0.208050000000     0.047385   
H53      H      0.553050000000     0.011180000000     0.268130000000     0.0474001  
H54      H      0.553240000000     0.010970000000     0.347510000000     0.0346934  
H55      H      0.421410000000     0.963550000000     0.347520000000     0.0346797  
H56      H      0.421580000000     0.963360000000     0.268140000000     0.0473903  
H57      H      0.553100000000     0.963450000000     0.708050000000     0.0473647  
H58      H      0.553280000000     0.963640000000     0.628670000000     0.0347032  
H59      H      0.421390000000     0.010890000000     0.628660000000     0.0347283  
H60      H      0.421570000000     0.011100000000     0.708050000000     0.0473626  
H61      H      0.463380000000     0.053000000000     0.768120000000     0.0473723  
H62      H      0.463570000000     0.053190000000     0.847510000000     0.0347095  
H63      H      0.511080000000     0.921390000000     0.847520000000     0.0346967  
H64      H      0.511300000000     0.921570000000     0.768140000000     0.0473787  
H65      H      0.553790000000     0.706460000000     0.465860000000     0.0463957  
H66      H      0.554010000000     0.627590000000     0.466930000000     0.0347634  
H67      H      0.420740000000     0.627650000000     0.509910000000     0.0347571  
H68      H      0.420980000000     0.706520000000     0.510800000000     0.0464264  
H69      H      0.420970000000     0.767990000000     0.465770000000     0.0464018  
H70      H      0.420730000000     0.846860000000     0.466650000000     0.0347506  
H71      H      0.554010000000     0.846920000000     0.509640000000     0.0347467  
H72      H      0.553790000000     0.768060000000     0.510700000000     0.0464026  
H73      H      0.420890000000     0.206460000000     0.510710000000     0.0464109  
H74      H      0.420660000000     0.127590000000     0.509640000000     0.0347815  
H75      H      0.553930000000     0.127650000000     0.466640000000     0.0347753  
H76      H      0.553690000000     0.206520000000     0.465760000000     0.046419   
H77      H      0.553700000000     0.267990000000     0.510780000000     0.046432   
H78      H      0.553940000000     0.346860000000     0.509900000000     0.0347628  
H79      H      0.420660000000     0.346920000000     0.466940000000     0.0347659  
H80      H      0.420880000000     0.268050000000     0.465870000000     0.0463969  
H81      H      0.053060000000     0.511260000000     0.268070000000     0.0473746  
H82      H      0.053230000000     0.511070000000     0.347450000000     0.034712   
H83      H      0.921400000000     0.463670000000     0.347440000000     0.0347145  
H84      H      0.921580000000     0.463450000000     0.268060000000     0.0473661  
H85      H      0.963450000000     0.421600000000     0.207990000000     0.0473546  
H86      H      0.963660000000     0.421410000000     0.128600000000     0.034716   
H87      H      0.011020000000     0.553260000000     0.128590000000     0.03473    
H88      H      0.011210000000     0.553090000000     0.207980000000     0.047395   
H89      H      0.921550000000     0.511230000000     0.707990000000     0.047374   
H90      H      0.921370000000     0.511040000000     0.628600000000     0.034702   
H91      H      0.053220000000     0.463670000000     0.628590000000     0.0347009  
H92      H      0.053040000000     0.463460000000     0.707980000000     0.0473771  
H93      H      0.011200000000     0.421600000000     0.768060000000     0.0474008  
H94      H      0.011010000000     0.421420000000     0.847440000000     0.0347022  
H95      H      0.963600000000     0.553250000000     0.847450000000     0.0346867  
H96      H      0.963390000000     0.553070000000     0.768070000000     0.0473762  
H97      H      0.053060000000     0.011230000000     0.268120000000     0.0473817  
H98      H      0.053230000000     0.011050000000     0.347510000000     0.0347145  
H99      H      0.921380000000     0.963680000000     0.347500000000     0.0346831  
H100     H      0.921570000000     0.963460000000     0.268120000000     0.0473889  
H101     H      0.963420000000     0.921600000000     0.208040000000     0.0473747  
H102     H      0.963620000000     0.921410000000     0.128660000000     0.0347115  
H103     H      0.011020000000     0.053240000000     0.128640000000     0.0347327  
H104     H      0.011220000000     0.053070000000     0.208030000000     0.0473839  
H105     H      0.011170000000     0.921590000000     0.768110000000     0.0473789  
H106     H      0.010970000000     0.921400000000     0.847490000000     0.034707   
H107     H      0.963600000000     0.053250000000     0.847510000000     0.0346875  
H108     H      0.963390000000     0.053080000000     0.768130000000     0.0473604  
H109     H      0.921540000000     0.011250000000     0.708040000000     0.0473516  
H110     H      0.921370000000     0.011060000000     0.628650000000     0.0347063  
H111     H      0.053200000000     0.963660000000     0.628650000000     0.0346763  
H112     H      0.053020000000     0.963440000000     0.708030000000     0.047377   
H113     H      0.920880000000     0.768140000000     0.465580000000     0.0463781  
H114     H      0.920650000000     0.847010000000     0.466570000000     0.0347626  
H115     H      0.053930000000     0.847000000000     0.509570000000     0.0347401  
H116     H      0.053690000000     0.768130000000     0.510530000000     0.0464054  
H117     H      0.053700000000     0.706610000000     0.465580000000     0.0463903  
H118     H      0.053930000000     0.627740000000     0.466540000000     0.0347625  
H119     H      0.920650000000     0.627730000000     0.509520000000     0.0347495  
H120     H      0.920880000000     0.706600000000     0.510500000000     0.0463953  
H121     H      0.053710000000     0.268140000000     0.510510000000     0.0464083  
H122     H      0.053940000000     0.347010000000     0.509520000000     0.0347532  
H123     H      0.920670000000     0.347000000000     0.466520000000     0.0347634  
H124     H      0.920900000000     0.268130000000     0.465560000000     0.0463782  
H125     H      0.920900000000     0.206610000000     0.510510000000     0.046434   
H126     H      0.920660000000     0.127740000000     0.509550000000     0.0347426  
H127     H      0.053940000000     0.127730000000     0.466580000000     0.0347593  
H128     H      0.053710000000     0.206600000000     0.465590000000     0.0464253  
O1       O      0.951080000000     0.053090000000     0.488170000000    -0.386059   
O2       O      0.951070000000     0.921650000000     0.487980000000    -0.386159   
O3       O      0.951070000000     0.987620000000     0.553910000000    -0.386126   
O4       O      0.951080000000     0.987120000000     0.422240000000    -0.386087   
O5       O      0.023520000000     0.987620000000     0.422250000000    -0.386092   
O6       O      0.023510000000     0.987120000000     0.553910000000    -0.386085   
O7       O      0.023510000000     0.921650000000     0.488180000000    -0.386128   
O8       O      0.023520000000     0.053090000000     0.487980000000    -0.386016   
O9       O      0.951080000000     0.421650000000     0.487920000000    -0.386103   
O10      O      0.951080000000     0.553090000000     0.488120000000    -0.386162   
O11      O      0.951080000000     0.487120000000     0.422180000000    -0.385959   
O12      O      0.951080000000     0.487610000000     0.553860000000    -0.386077   
O13      O      0.023520000000     0.487120000000     0.553860000000    -0.386049   
O14      O      0.023530000000     0.487620000000     0.422190000000    -0.386021   
O15      O      0.023520000000     0.553090000000     0.487930000000    -0.386132   
O16      O      0.023520000000     0.421650000000     0.488120000000    -0.386197   
O17      O      0.451090000000     0.052960000000     0.488200000000    -0.38601    
O18      O      0.451130000000     0.921530000000     0.488000000000    -0.386147   
O19      O      0.451110000000     0.987500000000     0.553930000000    -0.386008   
O20      O      0.451110000000     0.986990000000     0.422260000000    -0.386144   
O21      O      0.523550000000     0.987510000000     0.422250000000    -0.386125   
O22      O      0.523560000000     0.987020000000     0.553920000000    -0.386097   
O23      O      0.523570000000     0.921550000000     0.488190000000    -0.38616    
O24      O      0.523540000000     0.052980000000     0.487990000000    -0.386065   
O25      O      0.451100000000     0.421550000000     0.488370000000    -0.386217   
O26      O      0.451140000000     0.552980000000     0.488560000000    -0.386148   
O27      O      0.451110000000     0.487020000000     0.422630000000    -0.386068   
O28      O      0.451120000000     0.487520000000     0.554300000000    -0.3861     
O29      O      0.523560000000     0.487000000000     0.554300000000    -0.386043   
O30      O      0.523560000000     0.487500000000     0.422630000000    -0.38606    
O31      O      0.523580000000     0.552960000000     0.488360000000    -0.386145   
O32      O      0.523540000000     0.421530000000     0.488560000000    -0.386097   
O33      O      0.921590000000     0.023540000000     0.987990000000    -0.386081   
O34      O      0.053030000000     0.023540000000     0.988170000000    -0.38606    
O35      O      0.987050000000     0.023540000000     0.922240000000    -0.386053   
O36      O      0.987570000000     0.023550000000     0.053910000000    -0.385919   
O37      O      0.987060000000     0.951100000000     0.053910000000    -0.386023   
O38      O      0.987540000000     0.951100000000     0.922240000000    -0.386104   
O39      O      0.053020000000     0.951100000000     0.987970000000    -0.386082   
O40      O      0.921580000000     0.951100000000     0.988180000000    -0.386147   
O41      O      0.921600000000     0.523540000000     0.987940000000    -0.386032   
O42      O      0.053040000000     0.523570000000     0.988120000000    -0.386118   
O43      O      0.987060000000     0.523550000000     0.922190000000    -0.386127   
O44      O      0.987580000000     0.523560000000     0.053860000000    -0.385968   
O45      O      0.987100000000     0.451110000000     0.053860000000    -0.386022   
O46      O      0.987580000000     0.451110000000     0.922190000000    -0.386135   
O47      O      0.053060000000     0.451130000000     0.987920000000    -0.386165   
O48      O      0.921620000000     0.451090000000     0.988140000000    -0.386041   
O49      O      0.421590000000     0.023510000000     0.987980000000    -0.386132   
O50      O      0.553020000000     0.023520000000     0.988190000000    -0.3861     
O51      O      0.487060000000     0.023520000000     0.922250000000    -0.38594    
O52      O      0.487550000000     0.023510000000     0.053920000000    -0.386002   
O53      O      0.487050000000     0.951070000000     0.053920000000    -0.386032   
O54      O      0.487570000000     0.951070000000     0.922250000000    -0.386043   
O55      O      0.553030000000     0.951080000000     0.988000000000    -0.386154   
O56      O      0.421590000000     0.951070000000     0.988180000000    -0.386112   
O57      O      0.421620000000     0.523540000000     0.988360000000    -0.386161   
O58      O      0.553060000000     0.523510000000     0.988570000000    -0.386139   
O59      O      0.487100000000     0.523530000000     0.922630000000    -0.386001   
O60      O      0.487580000000     0.523520000000     0.054300000000    -0.386068   
O61      O      0.487060000000     0.451080000000     0.054300000000    -0.38607    
O62      O      0.487580000000     0.451080000000     0.922630000000    -0.386057   
O63      O      0.553040000000     0.451060000000     0.988370000000    -0.386133   
O64      O      0.421600000000     0.451100000000     0.988550000000    -0.386103   


