data_structure

_audit_creation_method RASPA-1.0
_audit_creation_date 2023-5-22
_audit_author_name 'Poobodin Mano'

_cell_length_a    30.7995
_cell_length_b    30.7994
_cell_length_c    30.8525
_cell_angle_alpha 89.9998
_cell_angle_beta  89.9998
_cell_angle_gamma 89.9998
_cell_volume      29266.9

_symmetry_cell_setting          triclinic
_symmetry_space_group_name_Hall 'P 1'
_symmetry_space_group_name_H-M  'P 1'
_symmetry_Int_Tables_number     1

_symmetry_equiv_pos_as_xyz 'x,y,z'

loop_
_atom_site_label
_atom_site_type_symbol
_atom_site_fract_x
_atom_site_fract_y
_atom_site_fract_z
_atom_site_charge
C1       C      0.074460000000     0.988100000000     0.987320000000     0.356255   
C2       C      0.901920000000     0.988140000000     0.987320000000     0.35642    
C3       C      0.988210000000     0.074390000000     0.987350000000     0.356075   
C4       C      0.988170000000     0.901850000000     0.987300000000     0.356259   
C5       C      0.074310000000     0.988120000000     0.487300000000     0.356288   
C6       C      0.901770000000     0.988150000000     0.487300000000     0.356321   
C7       C      0.988060000000     0.074400000000     0.487290000000     0.356375   
C8       C      0.988030000000     0.901870000000     0.487320000000     0.356393   
C9       C      0.988170000000     0.488080000000     0.901200000000     0.356314   
C10      C      0.988170000000     0.488160000000     0.073470000000     0.356341   
C11      C      0.988190000000     0.401840000000     0.987380000000     0.356512   
C12      C      0.988160000000     0.574400000000     0.987290000000     0.356326   
C13      C      0.988140000000     0.488170000000     0.401200000000     0.35615    
C14      C      0.988130000000     0.488100000000     0.573470000000     0.356316   
C15      C      0.988140000000     0.401860000000     0.487300000000     0.356334   
C16      C      0.988120000000     0.574410000000     0.487370000000     0.356331   
C17      C      0.488180000000     0.988140000000     0.073370000000     0.356379   
C18      C      0.488190000000     0.988130000000     0.901100000000     0.356292   
C19      C      0.574470000000     0.988150000000     0.987240000000     0.356323   
C20      C      0.401910000000     0.988120000000     0.987240000000     0.356385   
C21      C      0.488040000000     0.988130000000     0.573370000000     0.356388   
C22      C      0.488040000000     0.988150000000     0.401100000000     0.356336   
C23      C      0.574320000000     0.988150000000     0.487240000000     0.356458   
C24      C      0.401760000000     0.988130000000     0.487240000000     0.356272   
C25      C      0.500230000000     0.950750000000     0.689770000000    -0.0658279  
C26      C      0.488100000000     0.988120000000     0.713080000000     0.0225844  
C27      C      0.475950000000     0.025500000000     0.689790000000    -0.0657878  
C28      C      0.476220000000     0.025580000000     0.644490000000     0.0236824  
C29      C      0.488060000000     0.988130000000     0.621340000000    -0.10535    
C30      C      0.499920000000     0.950670000000     0.644470000000     0.023581   
C31      C      0.488130000000     0.988120000000     0.761400000000     0.0225821  
C32      C      0.476020000000     0.950750000000     0.784700000000    -0.0658153  
C33      C      0.476340000000     0.950660000000     0.830000000000     0.0235455  
C34      C      0.488180000000     0.988130000000     0.853130000000    -0.1053     
C35      C      0.500000000000     0.025590000000     0.829990000000     0.0236208  
C36      C      0.500270000000     0.025500000000     0.784690000000    -0.065741   
C37      C      0.475960000000     0.950780000000     0.284690000000    -0.0658155  
C38      C      0.488090000000     0.988150000000     0.261400000000     0.0225958  
C39      C      0.500210000000     0.025530000000     0.284700000000    -0.0657681  
C40      C      0.499900000000     0.025610000000     0.330000000000     0.0236568  
C41      C      0.488050000000     0.988150000000     0.353130000000    -0.105341   
C42      C      0.476230000000     0.950690000000     0.329990000000     0.0235948  
C43      C      0.488120000000     0.988150000000     0.213080000000     0.0225684  
C44      C      0.500270000000     0.950780000000     0.189790000000    -0.0658214  
C45      C      0.500000000000     0.950690000000     0.144490000000     0.0235614  
C46      C      0.488170000000     0.988150000000     0.121340000000    -0.105302   
C47      C      0.476310000000     0.025610000000     0.144470000000     0.0236135  
C48      C      0.476000000000     0.025520000000     0.189770000000    -0.0657048  
C49      C      0.025530000000     0.475920000000     0.784790000000    -0.0657646  
C50      C      0.988150000000     0.488040000000     0.761500000000     0.0226057  
C51      C      0.950780000000     0.500170000000     0.784800000000    -0.0658516  
C52      C      0.950700000000     0.499890000000     0.830090000000     0.0236181  
C53      C      0.988160000000     0.488060000000     0.853230000000    -0.105341   
C54      C      0.025620000000     0.476220000000     0.830090000000     0.0236432  
C55      C      0.988150000000     0.488050000000     0.713180000000     0.0225607  
C56      C      0.025520000000     0.500190000000     0.689880000000    -0.0657539  
C57      C      0.025600000000     0.499920000000     0.644580000000     0.0236305  
C58      C      0.988140000000     0.488080000000     0.621440000000    -0.105295   
C59      C      0.950680000000     0.476220000000     0.644580000000     0.0235301  
C60      C      0.950770000000     0.475920000000     0.689880000000    -0.0657945  
C61      C      0.025530000000     0.476080000000     0.284800000000    -0.0657409  
C62      C      0.988150000000     0.488210000000     0.261500000000     0.0225833  
C63      C      0.950780000000     0.500330000000     0.284790000000    -0.0658129  
C64      C      0.950690000000     0.500030000000     0.330090000000     0.023571   
C65      C      0.988140000000     0.488190000000     0.353230000000    -0.105262   
C66      C      0.025610000000     0.476360000000     0.330090000000     0.0236082  
C67      C      0.988160000000     0.488210000000     0.213180000000     0.0225777  
C68      C      0.025530000000     0.500340000000     0.189880000000    -0.0657536  
C69      C      0.025620000000     0.500040000000     0.144580000000     0.0236398  
C70      C      0.988170000000     0.488180000000     0.121440000000    -0.105316   
C71      C      0.950710000000     0.476340000000     0.144580000000     0.0235643  
C72      C      0.950790000000     0.476060000000     0.189880000000    -0.0658039  
C73      C      0.285170000000     0.025160000000     0.500420000000    -0.0663165  
C74      C      0.262080000000     0.988120000000     0.487280000000     0.022693   
C75      C      0.285170000000     0.951070000000     0.474120000000    -0.0663927  
C76      C      0.330550000000     0.950950000000     0.474450000000     0.0237825  
C77      C      0.353720000000     0.988130000000     0.487250000000    -0.105414   
C78      C      0.330550000000     0.025300000000     0.500070000000     0.0238418  
C79      C      0.213990000000     0.988110000000     0.487290000000     0.0225993  
C80      C      0.190910000000     0.002320000000     0.523890000000    -0.0662737  
C81      C      0.145530000000     0.001990000000     0.524040000000     0.0236104  
C82      C      0.122350000000     0.988110000000     0.487300000000    -0.105432   
C83      C      0.145520000000     0.974240000000     0.450560000000     0.0236041  
C84      C      0.190900000000     0.973900000000     0.450690000000    -0.0663869  
C85      C      0.785170000000     0.973960000000     0.523890000000    -0.0663844  
C86      C      0.762090000000     0.988160000000     0.487280000000     0.0225949  
C87      C      0.785180000000     0.002370000000     0.450690000000    -0.0662949  
C88      C      0.830560000000     0.002030000000     0.450550000000     0.0236486  
C89      C      0.853730000000     0.988160000000     0.487300000000    -0.105469   
C90      C      0.830550000000     0.974290000000     0.524030000000     0.0236013  
C91      C      0.714000000000     0.988160000000     0.487270000000     0.0227225  
C92      C      0.690910000000     0.951110000000     0.500410000000    -0.0664517  
C93      C      0.645530000000     0.950980000000     0.500060000000     0.0238464  
C94      C      0.622360000000     0.988150000000     0.487250000000    -0.105507   
C95      C      0.645530000000     0.025330000000     0.474440000000     0.0238951  
C96      C      0.690910000000     0.025210000000     0.474120000000    -0.0663761  
C97      C      0.973860000000     0.785260000000     0.450750000000    -0.0663637  
C98      C      0.988070000000     0.762180000000     0.487350000000     0.0225917  
C99      C      0.002260000000     0.785280000000     0.523950000000    -0.0662855  
C100     C      0.001910000000     0.830660000000     0.524080000000     0.0236646  
C101     C      0.988040000000     0.853830000000     0.487330000000    -0.105484   
C102     C      0.974180000000     0.830640000000     0.450600000000     0.0235997  
C103     C      0.988080000000     0.714100000000     0.487360000000     0.0226783  
C104     C      0.951040000000     0.690990000000     0.474220000000    -0.0663817  
C105     C      0.950930000000     0.645620000000     0.474550000000     0.0237641  
C106     C      0.988110000000     0.622450000000     0.487370000000    -0.105388   
C107     C      0.025280000000     0.645630000000     0.500190000000     0.0237921  
C108     C      0.025130000000     0.691020000000     0.500520000000    -0.0663069  
C109     C      0.951070000000     0.285270000000     0.500420000000    -0.0663764  
C110     C      0.988120000000     0.262170000000     0.487280000000     0.0226782  
C111     C      0.025170000000     0.285260000000     0.474140000000    -0.0663202  
C112     C      0.025310000000     0.330640000000     0.474480000000     0.0238036  
C113     C      0.988130000000     0.353820000000     0.487290000000    -0.105393   
C114     C      0.950950000000     0.330650000000     0.500090000000     0.0237676  
C115     C      0.988110000000     0.214090000000     0.487280000000     0.0225934  
C116     C      0.973890000000     0.191010000000     0.523880000000    -0.0663785  
C117     C      0.974210000000     0.145630000000     0.524020000000     0.0235993  
C118     C      0.988070000000     0.122440000000     0.487280000000    -0.105461   
C119     C      0.001960000000     0.145610000000     0.450540000000     0.0236609  
C120     C      0.002310000000     0.190990000000     0.450680000000    -0.0662879  
C121     C      0.191050000000     0.973910000000     0.950690000000    -0.0663435  
C122     C      0.214150000000     0.988090000000     0.987290000000     0.0225098  
C123     C      0.191060000000     0.002270000000     0.023910000000    -0.0662078  
C124     C      0.145680000000     0.001940000000     0.024060000000     0.0236652  
C125     C      0.122500000000     0.988090000000     0.987310000000    -0.105469   
C126     C      0.145670000000     0.974240000000     0.950560000000     0.0235699  
C127     C      0.262230000000     0.988100000000     0.987280000000     0.022689   
C128     C      0.285320000000     0.951060000000     0.974110000000    -0.066439   
C129     C      0.330700000000     0.950940000000     0.974430000000     0.0238003  
C130     C      0.353880000000     0.988120000000     0.987250000000    -0.105548   
C131     C      0.330700000000     0.025280000000     0.000090000000     0.0239508  
C132     C      0.285320000000     0.025140000000     0.000440000000    -0.0663127  
C133     C      0.785330000000     0.002370000000     0.950710000000    -0.0662445  
C134     C      0.762240000000     0.988170000000     0.987300000000     0.0225438  
C135     C      0.785320000000     0.973960000000     0.023900000000    -0.0663064  
C136     C      0.830700000000     0.974290000000     0.024050000000     0.023652   
C137     C      0.853880000000     0.988160000000     0.987320000000    -0.105546   
C138     C      0.830720000000     0.002040000000     0.950570000000     0.0236184  
C139     C      0.714150000000     0.988170000000     0.987290000000     0.0226499  
C140     C      0.691060000000     0.025210000000     0.974130000000    -0.066329   
C141     C      0.645680000000     0.025330000000     0.974450000000     0.0238445  
C142     C      0.622510000000     0.988150000000     0.987260000000    -0.105468   
C143     C      0.645680000000     0.950980000000     0.000080000000     0.0238293  
C144     C      0.691060000000     0.951120000000     0.000430000000    -0.0663322  
C145     C      0.951120000000     0.690990000000     0.974120000000    -0.06636    
C146     C      0.988160000000     0.714080000000     0.987260000000     0.0226541  
C147     C      0.025200000000     0.690990000000     0.000420000000    -0.0662564  
C148     C      0.025340000000     0.645610000000     0.000090000000     0.0238698  
C149     C      0.988160000000     0.622430000000     0.987280000000    -0.105491   
C150     C      0.950980000000     0.645610000000     0.974460000000     0.0237505  
C151     C      0.988160000000     0.762160000000     0.987270000000     0.0225106  
C152     C      0.973960000000     0.785260000000     0.950670000000    -0.0663403  
C153     C      0.974300000000     0.830640000000     0.950540000000     0.0236013  
C154     C      0.988160000000     0.853810000000     0.987280000000    -0.105507   
C155     C      0.002030000000     0.830630000000     0.024020000000     0.023674   
C156     C      0.002360000000     0.785250000000     0.023870000000    -0.0661853  
C157     C      0.002420000000     0.191000000000     0.950780000000    -0.0662723  
C158     C      0.988220000000     0.214080000000     0.987390000000     0.0225232  
C159     C      0.974020000000     0.190980000000     0.023980000000    -0.0662823  
C160     C      0.974350000000     0.145600000000     0.024110000000     0.0235775  
C161     C      0.988220000000     0.122430000000     0.987360000000    -0.105414   
C162     C      0.002080000000     0.145610000000     0.950630000000     0.0236331  
C163     C      0.988210000000     0.262160000000     0.987400000000     0.0226918  
C164     C      0.025250000000     0.285250000000     0.974240000000    -0.0663569  
C165     C      0.025380000000     0.330640000000     0.974580000000     0.0238861  
C166     C      0.988200000000     0.353810000000     0.987390000000    -0.105587   
C167     C      0.951020000000     0.330620000000     0.000210000000     0.0238563  
C168     C      0.951160000000     0.285240000000     0.000550000000    -0.0663898  
Cu1      Cu     0.988190000000     0.988130000000     0.947180000000     0.839331   
Cu2      Cu     0.988190000000     0.988110000000     0.027460000000     0.839481   
Cu3      Cu     0.988040000000     0.988130000000     0.447160000000     0.839401   
Cu4      Cu     0.988040000000     0.988140000000     0.527440000000     0.839447   
Cu5      Cu     0.028390000000     0.488130000000     0.987340000000     0.839865   
Cu6      Cu     0.947950000000     0.488110000000     0.987340000000     0.839496   
Cu7      Cu     0.028350000000     0.488140000000     0.487340000000     0.839768   
Cu8      Cu     0.947910000000     0.488130000000     0.487330000000     0.839609   
Cu9      Cu     0.488200000000     0.947920000000     0.987240000000     0.839451   
Cu10     Cu     0.488180000000     0.028360000000     0.987240000000     0.83963    
Cu11     Cu     0.488040000000     0.947920000000     0.487230000000     0.839673   
Cu12     Cu     0.488040000000     0.028360000000     0.487240000000     0.839683   
H1       H      0.465620000000     0.054640000000     0.706480000000     0.0463986  
H2       H      0.466560000000     0.054880000000     0.627620000000     0.0347405  
H3       H      0.509560000000     0.921380000000     0.627590000000     0.0347483  
H4       H      0.510570000000     0.921610000000     0.706460000000     0.0463864  
H5       H      0.465690000000     0.921600000000     0.768020000000     0.0463808  
H6       H      0.466700000000     0.921370000000     0.846880000000     0.034758   
H7       H      0.509640000000     0.054880000000     0.846860000000     0.0347518  
H8       H      0.510570000000     0.054650000000     0.767990000000     0.0463821  
H9       H      0.510540000000     0.054680000000     0.268020000000     0.0463905  
H10      H      0.509530000000     0.054910000000     0.346880000000     0.0347478  
H11      H      0.466580000000     0.921390000000     0.346860000000     0.0347418  
H12      H      0.465640000000     0.921630000000     0.267990000000     0.046376   
H13      H      0.510600000000     0.921640000000     0.206480000000     0.0463937  
H14      H      0.509660000000     0.921400000000     0.127620000000     0.0347647  
H15      H      0.466670000000     0.054900000000     0.127590000000     0.0347616  
H16      H      0.465660000000     0.054670000000     0.206460000000     0.0463644  
H17      H      0.921630000000     0.510490000000     0.768110000000     0.046388   
H18      H      0.921400000000     0.509530000000     0.846970000000     0.0347387  
H19      H      0.054920000000     0.466590000000     0.846970000000     0.0347445  
H20      H      0.054680000000     0.465600000000     0.768100000000     0.0463846  
H21      H      0.054660000000     0.510520000000     0.706570000000     0.0463909  
H22      H      0.054890000000     0.509570000000     0.627700000000     0.0347573  
H23      H      0.921390000000     0.466580000000     0.627700000000     0.0347602  
H24      H      0.921630000000     0.465580000000     0.706570000000     0.0463778  
H25      H      0.921630000000     0.510660000000     0.268100000000     0.0463755  
H26      H      0.921390000000     0.509670000000     0.346970000000     0.0347519  
H27      H      0.054900000000     0.466710000000     0.346970000000     0.0347633  
H28      H      0.054680000000     0.465760000000     0.268110000000     0.0463831  
H29      H      0.054670000000     0.510680000000     0.206570000000     0.0463894  
H30      H      0.054910000000     0.509680000000     0.127700000000     0.034755   
H31      H      0.921420000000     0.466690000000     0.127700000000     0.0347651  
H32      H      0.921640000000     0.465740000000     0.206570000000     0.0463816  
H33      H      0.268090000000     0.922000000000     0.464110000000     0.047273   
H34      H      0.347460000000     0.921840000000     0.464270000000     0.0347152  
H35      H      0.347460000000     0.054410000000     0.510240000000     0.0347167  
H36      H      0.268090000000     0.054230000000     0.510440000000     0.0472683  
H37      H      0.207990000000     0.013170000000     0.552610000000     0.0473508  
H38      H      0.128630000000     0.012990000000     0.552790000000     0.0350813  
H39      H      0.128610000000     0.963230000000     0.421800000000     0.0350498  
H40      H      0.207970000000     0.963050000000     0.421970000000     0.0473574  
H41      H      0.768110000000     0.013210000000     0.421960000000     0.0473502  
H42      H      0.847470000000     0.013030000000     0.421790000000     0.0350556  
H43      H      0.847450000000     0.963290000000     0.552790000000     0.0350351  
H44      H      0.768090000000     0.963120000000     0.552610000000     0.0473485  
H45      H      0.707990000000     0.922050000000     0.510430000000     0.0472938  
H46      H      0.628620000000     0.921870000000     0.510230000000     0.034693   
H47      H      0.628620000000     0.054440000000     0.464260000000     0.0347008  
H48      H      0.707990000000     0.054270000000     0.464100000000     0.0472934  
H49      H      0.013110000000     0.768210000000     0.552680000000     0.0473446  
H50      H      0.012910000000     0.847580000000     0.552840000000     0.0350599  
H51      H      0.963170000000     0.847540000000     0.421840000000     0.0350373  
H52      H      0.963020000000     0.768170000000     0.422030000000     0.0473361  
H53      H      0.921970000000     0.708060000000     0.464190000000     0.047265   
H54      H      0.921830000000     0.628700000000     0.464380000000     0.0347243  
H55      H      0.054390000000     0.628740000000     0.510360000000     0.0347233  
H56      H      0.054190000000     0.708100000000     0.510540000000     0.0472752  
H57      H      0.054230000000     0.268180000000     0.464120000000     0.0472819  
H58      H      0.054420000000     0.347540000000     0.464320000000     0.0347184  
H59      H      0.921850000000     0.347560000000     0.510270000000     0.0347308  
H60      H      0.922000000000     0.268190000000     0.510430000000     0.0472709  
H61      H      0.963050000000     0.208090000000     0.552600000000     0.0473532  
H62      H      0.963190000000     0.128720000000     0.552780000000     0.0350517  
H63      H      0.012960000000     0.128700000000     0.421780000000     0.0350699  
H64      H      0.013160000000     0.208070000000     0.421960000000     0.0473563  
H65      H      0.208150000000     0.013100000000     0.052630000000     0.0473478  
H66      H      0.128780000000     0.012920000000     0.052830000000     0.0350759  
H67      H      0.128760000000     0.963260000000     0.921800000000     0.0350591  
H68      H      0.208120000000     0.963080000000     0.921960000000     0.0473406  
H69      H      0.268250000000     0.922000000000     0.964080000000     0.0472907  
H70      H      0.347610000000     0.921850000000     0.964230000000     0.0347048  
H71      H      0.347600000000     0.054390000000     0.010270000000     0.0347033  
H72      H      0.268240000000     0.054200000000     0.010480000000     0.0472861  
H73      H      0.768230000000     0.963110000000     0.052620000000     0.0473268  
H74      H      0.847600000000     0.963280000000     0.052810000000     0.035027   
H75      H      0.847630000000     0.013040000000     0.921820000000     0.0350659  
H76      H      0.768260000000     0.013230000000     0.921980000000     0.047326   
H77      H      0.708140000000     0.054280000000     0.964120000000     0.0472654  
H78      H      0.628770000000     0.054440000000     0.964270000000     0.0347081  
H79      H      0.628770000000     0.921870000000     0.010240000000     0.0347283  
H80      H      0.708140000000     0.922050000000     0.010450000000     0.0472656  
H81      H      0.054270000000     0.708070000000     0.010440000000     0.0472646  
H82      H      0.054440000000     0.628710000000     0.010270000000     0.0347271  
H83      H      0.921880000000     0.628700000000     0.964280000000     0.0347125  
H84      H      0.922050000000     0.708070000000     0.964090000000     0.047247   
H85      H      0.963110000000     0.768190000000     0.921940000000     0.0473225  
H86      H      0.963300000000     0.847560000000     0.921780000000     0.0350329  
H87      H      0.013030000000     0.847530000000     0.052790000000     0.0350629  
H88      H      0.013200000000     0.768160000000     0.052600000000     0.0473197  
H89      H      0.963180000000     0.208050000000     0.052710000000     0.0473333  
H90      H      0.963360000000     0.128680000000     0.052870000000     0.0350707  
H91      H      0.013080000000     0.128720000000     0.921860000000     0.0350741  
H92      H      0.013260000000     0.208080000000     0.922060000000     0.0473543  
H93      H      0.054320000000     0.268180000000     0.964220000000     0.0472799  
H94      H      0.054480000000     0.347550000000     0.964390000000     0.0346957  
H95      H      0.921920000000     0.347530000000     0.010390000000     0.0347167  
H96      H      0.922100000000     0.268160000000     0.010570000000     0.0472975  
O1       O      0.054010000000     0.986790000000     0.951120000000    -0.385917   
O2       O      0.922370000000     0.989470000000     0.951130000000    -0.386072   
O3       O      0.989530000000     0.053950000000     0.951140000000    -0.385849   
O4       O      0.986850000000     0.922310000000     0.951110000000    -0.385998   
O5       O      0.989500000000     0.922290000000     0.023500000000    -0.385985   
O6       O      0.986880000000     0.053930000000     0.023540000000    -0.385873   
O7       O      0.922370000000     0.986810000000     0.023510000000    -0.386038   
O8       O      0.054010000000     0.989420000000     0.023510000000    -0.385969   
O9       O      0.053860000000     0.986790000000     0.451110000000    -0.385981   
O10      O      0.922220000000     0.989460000000     0.451110000000    -0.386058   
O11      O      0.989380000000     0.053950000000     0.451090000000    -0.385968   
O12      O      0.986710000000     0.922310000000     0.451120000000    -0.38603    
O13      O      0.989350000000     0.922320000000     0.523510000000    -0.386076   
O14      O      0.986730000000     0.053960000000     0.523480000000    -0.386052   
O15      O      0.922220000000     0.986830000000     0.523500000000    -0.385983   
O16      O      0.053860000000     0.989450000000     0.523500000000    -0.385937   
O17      O      0.024450000000     0.487980000000     0.921620000000    -0.386048   
O18      O      0.024450000000     0.488270000000     0.053050000000    -0.386082   
O19      O      0.024460000000     0.422300000000     0.987140000000    -0.38611    
O20      O      0.024450000000     0.553950000000     0.987530000000    -0.386037   
O21      O      0.951880000000     0.553950000000     0.987080000000    -0.385997   
O22      O      0.951900000000     0.422280000000     0.987600000000    -0.386072   
O23      O      0.951890000000     0.488030000000     0.053050000000    -0.386107   
O24      O      0.951890000000     0.488200000000     0.921620000000    -0.38608    
O25      O      0.024420000000     0.488050000000     0.421620000000    -0.386006   
O26      O      0.024410000000     0.488230000000     0.553050000000    -0.38609    
O27      O      0.024420000000     0.422310000000     0.487090000000    -0.38602    
O28      O      0.024410000000     0.553970000000     0.487590000000    -0.385984   
O29      O      0.951840000000     0.553960000000     0.487130000000    -0.386068   
O30      O      0.951850000000     0.422300000000     0.487540000000    -0.386033   
O31      O      0.951850000000     0.487990000000     0.553050000000    -0.386085   
O32      O      0.951850000000     0.488270000000     0.421620000000    -0.386048   
O33      O      0.488310000000     0.951860000000     0.052960000000    -0.386081   
O34      O      0.488080000000     0.951850000000     0.921520000000    -0.386065   
O35      O      0.554030000000     0.951860000000     0.987470000000    -0.386022   
O36      O      0.422360000000     0.951840000000     0.987020000000    -0.38601    
O37      O      0.422350000000     0.024410000000     0.987460000000    -0.386005   
O38      O      0.554020000000     0.024430000000     0.987010000000    -0.385958   
O39      O      0.488300000000     0.024410000000     0.921520000000    -0.386029   
O40      O      0.488070000000     0.024420000000     0.052950000000    -0.386083   
O41      O      0.488160000000     0.951860000000     0.552950000000    -0.386179   
O42      O      0.487930000000     0.951870000000     0.421520000000    -0.386159   
O43      O      0.553870000000     0.951870000000     0.487460000000    -0.386097   
O44      O      0.422210000000     0.951850000000     0.487010000000    -0.386053   
O45      O      0.422210000000     0.024420000000     0.487470000000    -0.38593    
O46      O      0.553870000000     0.024430000000     0.487010000000    -0.386036   
O47      O      0.488150000000     0.024430000000     0.421520000000    -0.386035   
O48      O      0.487920000000     0.024420000000     0.552960000000    -0.38602    


