data_structure

_audit_creation_method RASPA-1.0
_audit_creation_date 2023-6-4
_audit_author_name 'Poobodin Mano'

_cell_length_a    20.9779
_cell_length_b    21.1364
_cell_length_c    30.358
_cell_angle_alpha 89.9989
_cell_angle_beta  89.9989
_cell_angle_gamma 94.7502
_cell_volume      13414.4

_symmetry_cell_setting          triclinic
_symmetry_space_group_name_Hall 'P 1'
_symmetry_space_group_name_H-M  'P 1'
_symmetry_Int_Tables_number     1

_symmetry_equiv_pos_as_xyz 'x,y,z'

loop_
_atom_site_label
_atom_site_type_symbol
_atom_site_fract_x
_atom_site_fract_y
_atom_site_fract_z
_atom_site_charge
C1       C      0.074890000000     0.890120000000     0.994730000000     0.346936   
C2       C      0.905550000000     0.067200000000     0.995550000000     0.346081   
C3       C      0.084780000000     0.067790000000     0.998220000000     0.367657   
C4       C      0.895740000000     0.889320000000     0.992040000000     0.367654   
C5       C      0.067410000000     0.901680000000     0.495470000000     0.345941   
C6       C      0.893880000000     0.075160000000     0.495380000000     0.345705   
C7       C      0.073190000000     0.079680000000     0.494180000000     0.368563   
C8       C      0.888270000000     0.896990000000     0.496660000000     0.368499   
C9       C      0.487570000000     0.474480000000     0.911330000000     0.425243   
C10      C      0.493530000000     0.481650000000     0.079090000000     0.425639   
C11      C      0.576330000000     0.397010000000     0.995760000000     0.40894    
C12      C      0.405130000000     0.559420000000     0.994580000000     0.408321   
C13      C      0.483210000000     0.490340000000     0.411270000000     0.42572    
C14      C      0.479000000000     0.485490000000     0.579170000000     0.425475   
C15      C      0.564470000000     0.405110000000     0.495180000000     0.407057   
C16      C      0.396800000000     0.571700000000     0.495430000000     0.408603   
C17      C      0.537230000000     0.499960000000     0.792610000000    -0.0724267  
C18      C      0.482320000000     0.475520000000     0.769720000000     0.02578    
C19      C      0.429560000000     0.448910000000     0.794020000000    -0.0718212  
C20      C      0.431540000000     0.447390000000     0.840050000000     0.0358804  
C21      C      0.485970000000     0.473200000000     0.862720000000    -0.131961   
C22      C      0.538850000000     0.499240000000     0.838520000000     0.0370231  
C23      C      0.480210000000     0.478400000000     0.720780000000     0.0257408  
C24      C      0.510010000000     0.530970000000     0.698180000000    -0.0720988  
C25      C      0.509630000000     0.533180000000     0.652250000000     0.0363494  
C26      C      0.478610000000     0.483350000000     0.627790000000    -0.13181    
C27      C      0.447830000000     0.431270000000     0.650210000000     0.0361345  
C28      C      0.448960000000     0.428630000000     0.696200000000    -0.0720078  
C29      C      0.467230000000     0.433100000000     0.197900000000    -0.0723194  
C30      C      0.492060000000     0.487600000000     0.220690000000     0.0258217  
C31      C      0.518980000000     0.539820000000     0.196300000000    -0.0720463  
C32      C      0.520530000000     0.537680000000     0.150280000000     0.0363697  
C33      C      0.494470000000     0.483590000000     0.127700000000    -0.132054   
C34      C      0.467990000000     0.431300000000     0.151990000000     0.0366782  
C35      C      0.489380000000     0.489750000000     0.269630000000     0.0256946  
C36      C      0.436430000000     0.460370000000     0.292340000000    -0.0721244  
C37      C      0.434510000000     0.460570000000     0.338280000000     0.0363515  
C38      C      0.485030000000     0.490980000000     0.362640000000    -0.131911   
C39      C      0.537480000000     0.521400000000     0.340110000000     0.0361004  
C40      C      0.539820000000     0.520470000000     0.294110000000    -0.0719936  
C41      C      0.168140000000     0.768210000000     0.458770000000    -0.0626978  
C42      C      0.207810000000     0.760850000000     0.495530000000     0.0192476  
C43      C      0.200770000000     0.800360000000     0.532270000000    -0.0627287  
C44      C      0.155000000000     0.845400000000     0.532430000000     0.0181531  
C45      C      0.115750000000     0.853220000000     0.495490000000    -0.0967648  
C46      C      0.123270000000     0.814120000000     0.458570000000     0.0181788  
C47      C      0.256260000000     0.712300000000     0.495540000000     0.0249034  
C48      C      0.239810000000     0.649660000000     0.481270000000    -0.0691664  
C49      C      0.285000000000     0.604060000000     0.481670000000     0.0293856  
C50      C      0.348400000000     0.620050000000     0.495510000000    -0.120192   
C51      C      0.365000000000     0.682880000000     0.509380000000     0.0293802  
C52      C      0.319460000000     0.728120000000     0.509820000000    -0.0691945  
C53      C      0.763870000000     0.773350000000     0.537880000000    -0.0628664  
C54      C      0.739670000000     0.747890000000     0.498090000000     0.0102704  
C55      C      0.764450000000     0.771290000000     0.457900000000    -0.062888   
C56      C      0.812920000000     0.820000000000     0.457430000000     0.0259771  
C57      C      0.837190000000     0.845780000000     0.497220000000    -0.112936   
C58      C      0.812400000000     0.822100000000     0.537470000000     0.0259206  
C59      C      0.688330000000     0.697010000000     0.498380000000     0.0604743  
C60      C      0.692180000000     0.644400000000     0.526170000000    -0.115747   
C61      C      0.643660000000     0.595600000000     0.525680000000     0.125142   
C62      C      0.591600000000     0.599460000000     0.497590000000    -0.331784   
C63      C      0.587210000000     0.651690000000     0.470100000000     0.124723   
C64      C      0.635480000000     0.700590000000     0.470440000000    -0.115615   
C65      C      0.793320000000     0.208740000000     0.458630000000    -0.0627719  
C66      C      0.753480000000     0.215970000000     0.495320000000     0.0192856  
C67      C      0.760330000000     0.176360000000     0.532020000000    -0.0627976  
C68      C      0.806150000000     0.131360000000     0.532240000000     0.0181728  
C69      C      0.845540000000     0.123620000000     0.495360000000    -0.0966992  
C70      C      0.838170000000     0.162790000000     0.458460000000     0.0181481  
C71      C      0.705020000000     0.264510000000     0.495280000000     0.0247484  
C72      C      0.721830000000     0.327480000000     0.481880000000    -0.0690024  
C73      C      0.676620000000     0.373090000000     0.482300000000     0.0290454  
C74      C      0.612870000000     0.356740000000     0.495210000000    -0.11923    
C75      C      0.595910000000     0.293570000000     0.508160000000     0.0290641  
C76      C      0.641470000000     0.248330000000     0.508650000000    -0.0689897  
C77      C      0.198620000000     0.203980000000     0.532740000000    -0.0627694  
C78      C      0.221580000000     0.228970000000     0.492500000000     0.010299   
C79      C      0.196190000000     0.204490000000     0.452760000000    -0.0627414  
C80      C      0.147860000000     0.155560000000     0.453270000000     0.0260207  
C81      C      0.124500000000     0.130660000000     0.493560000000    -0.112722   
C82      C      0.150310000000     0.155100000000     0.533290000000     0.0260964  
C83      C      0.272000000000     0.280740000000     0.492080000000     0.0605695  
C84      C      0.267670000000     0.333090000000     0.520020000000    -0.115636   
C85      C      0.316270000000     0.381710000000     0.520270000000     0.124971   
C86      C      0.368920000000     0.378110000000     0.492700000000    -0.332103   
C87      C      0.373440000000     0.326600000000     0.464560000000     0.125234   
C88      C      0.324980000000     0.277770000000     0.464160000000    -0.115749   
C89      C      0.260470000000     0.648650000000     0.024900000000    -0.0681674  
C90      C      0.263520000000     0.699250000000     0.994170000000     0.0250487  
C91      C      0.314390000000     0.701930000000     0.963380000000    -0.0682106  
C92      C      0.360540000000     0.657340000000     0.964030000000     0.0310397  
C93      C      0.356310000000     0.606910000000     0.994250000000    -0.121027   
C94      C      0.305330000000     0.602720000000     0.024350000000     0.0310477  
C95      C      0.214540000000     0.748590000000     0.994280000000     0.0197563  
C96      C      0.154020000000     0.736670000000     0.014720000000    -0.0617578  
C97      C      0.109410000000     0.782830000000     0.015530000000     0.0202766  
C98      C      0.122520000000     0.841590000000     0.994510000000    -0.0980441  
C99      C      0.181750000000     0.853710000000     0.973400000000     0.0202176  
C100     C      0.227430000000     0.808640000000     0.973980000000    -0.0620023  
C101     C      0.698260000000     0.638980000000     0.961560000000    -0.115631   
C102     C      0.692570000000     0.692400000000     0.988290000000     0.0605166  
C103     C      0.639240000000     0.695410000000     0.015880000000    -0.115018   
C104     C      0.592580000000     0.645000000000     0.017190000000     0.125049   
C105     C      0.599040000000     0.591810000000     0.990980000000    -0.330725   
C106     C      0.651350000000     0.588690000000     0.962990000000     0.125433   
C107     C      0.743510000000     0.743760000000     0.988850000000     0.0101455  
C108     C      0.767140000000     0.767430000000     0.029270000000    -0.0627294  
C109     C      0.816580000000     0.815090000000     0.030210000000     0.025844   
C110     C      0.843090000000     0.839660000000     0.990710000000    -0.112721   
C111     C      0.819130000000     0.816140000000     0.950200000000     0.0255286  
C112     C      0.769570000000     0.768320000000     0.949300000000    -0.0626293  
C113     C      0.733980000000     0.320200000000     0.981600000000    -0.069512   
C114     C      0.717910000000     0.257590000000     0.996090000000     0.0250413  
C115     C      0.654870000000     0.241500000000     0.010550000000    -0.069295   
C116     C      0.609090000000     0.286430000000     0.010100000000     0.0299793  
C117     C      0.625250000000     0.349230000000     0.996010000000    -0.120554   
C118     C      0.688490000000     0.365540000000     0.981980000000     0.0300601  
C119     C      0.766490000000     0.209210000000     0.996070000000     0.0191525  
C120     C      0.805770000000     0.201540000000     0.959150000000    -0.0627962  
C121     C      0.850350000000     0.155350000000     0.958840000000     0.0183255  
C122     C      0.857930000000     0.116320000000     0.995790000000    -0.097067   
C123     C      0.819190000000     0.124590000000     0.032920000000     0.0184367  
C124     C      0.773730000000     0.169900000000     0.032880000000    -0.0626475  
C125     C      0.340160000000     0.262560000000     0.972890000000    -0.115524   
C126     C      0.288250000000     0.264400000000     0.001880000000     0.0607058  
C127     C      0.284100000000     0.316530000000     0.030060000000    -0.115513   
C128     C      0.331110000000     0.366750000000     0.028690000000     0.125734   
C129     C      0.381940000000     0.364840000000     0.999290000000    -0.331452   
C130     C      0.386890000000     0.312900000000     0.971630000000     0.124684   
C131     C      0.237130000000     0.213210000000     0.001320000000     0.01048    
C132     C      0.211650000000     0.191380000000     0.960940000000    -0.0629223  
C133     C      0.162160000000     0.143780000000     0.960020000000     0.0259093  
C134     C      0.137410000000     0.117450000000     0.999520000000    -0.112599   
C135     C      0.163150000000     0.139190000000     0.039980000000     0.0258379  
C136     C      0.212800000000     0.186930000000     0.040860000000    -0.0626509  
Cu1      Cu     0.991790000000     0.980390000000     0.954350000000     0.841037   
Cu2      Cu     0.988730000000     0.976720000000     0.035930000000     0.841028   
Cu3      Cu     0.980090000000     0.987830000000     0.454630000000     0.840975   
Cu4      Cu     0.981210000000     0.989000000000     0.536220000000     0.840539   
Cu5      Cu     0.536110000000     0.524610000000     0.993180000000     1.15951    
Cu6      Cu     0.445040000000     0.431870000000     0.997210000000     1.161      
Cu7      Cu     0.526830000000     0.534100000000     0.496340000000     1.15947    
Cu8      Cu     0.434410000000     0.442740000000     0.494100000000     1.16024    
H1       H      0.386160000000     0.430370000000     0.777590000000     0.0477902  
H2       H      0.389930000000     0.427270000000     0.857870000000     0.0325219  
H3       H      0.581800000000     0.518880000000     0.855060000000     0.0316734  
H4       H      0.579350000000     0.519420000000     0.775080000000     0.0476064  
H5       H      0.533320000000     0.570850000000     0.715950000000     0.0477561  
H6       H      0.533270000000     0.574250000000     0.635920000000     0.0325457  
H7       H      0.423790000000     0.391950000000     0.632230000000     0.032567   
H8       H      0.426290000000     0.387010000000     0.712380000000     0.0476151  
H9       H      0.537800000000     0.582900000000     0.212680000000     0.0475371  
H10      H      0.540940000000     0.578850000000     0.132390000000     0.031063   
H11      H      0.448100000000     0.388650000000     0.135540000000     0.0329778  
H12      H      0.447500000000     0.391410000000     0.215490000000     0.047823   
H13      H      0.396040000000     0.437480000000     0.274650000000     0.0476053  
H14      H      0.393130000000     0.437240000000     0.354690000000     0.0326058  
H15      H      0.577320000000     0.545000000000     0.358010000000     0.0325771  
H16      H      0.581740000000     0.542820000000     0.277830000000     0.047745   
H17      H      0.230120000000     0.795820000000     0.561270000000     0.0462206  
H18      H      0.150840000000     0.874610000000     0.561430000000     0.0356692  
H19      H      0.093930000000     0.818510000000     0.429550000000     0.0357599  
H20      H      0.172460000000     0.738980000000     0.429780000000     0.0462142  
H21      H      0.191560000000     0.635600000000     0.470340000000     0.0479238  
H22      H      0.270340000000     0.556310000000     0.470690000000     0.03387    
H23      H      0.413220000000     0.697070000000     0.520340000000     0.0338187  
H24      H      0.334020000000     0.775930000000     0.520740000000     0.0478103  
H25      H      0.746730000000     0.751520000000     0.426870000000     0.0456972  
H26      H      0.831370000000     0.837190000000     0.425930000000     0.0352099  
H27      H      0.830230000000     0.841250000000     0.568630000000     0.0351791  
H28      H      0.744730000000     0.756100000000     0.569200000000     0.0456498  
H29      H      0.732960000000     0.640660000000     0.547630000000     0.0592381  
H30      H      0.646510000000     0.554740000000     0.546820000000     0.00551927 
H31      H      0.546480000000     0.654200000000     0.448510000000     0.00594019 
H32      H      0.631440000000     0.741210000000     0.449160000000     0.0592665  
H33      H      0.730800000000     0.180810000000     0.560940000000     0.0462986  
H34      H      0.810190000000     0.102070000000     0.561220000000     0.035605   
H35      H      0.867650000000     0.158470000000     0.429500000000     0.0355163  
H36      H      0.789150000000     0.238100000000     0.429690000000     0.0462721  
H37      H      0.770350000000     0.341780000000     0.471640000000     0.0478447  
H38      H      0.691540000000     0.421120000000     0.472030000000     0.0338213  
H39      H      0.547420000000     0.279120000000     0.518400000000     0.0338675  
H40      H      0.626680000000     0.200260000000     0.518910000000     0.0479337  
H41      H      0.213120000000     0.223750000000     0.421400000000     0.045749   
H42      H      0.128680000000     0.137630000000     0.422140000000     0.0354655  
H43      H      0.133350000000     0.136560000000     0.564830000000     0.0354471  
H44      H      0.218380000000     0.221900000000     0.563730000000     0.0458225  
H45      H      0.226740000000     0.336450000000     0.541410000000     0.0594041  
H46      H      0.313270000000     0.422010000000     0.541910000000     0.00586363 
H47      H      0.414640000000     0.324340000000     0.443360000000     0.00566427 
H48      H      0.329300000000     0.237400000000     0.442690000000     0.0593579  
H49      H      0.318900000000     0.737920000000     0.938070000000     0.0467657  
H50      H      0.398950000000     0.661550000000     0.940080000000     0.0315644  
H51      H      0.301100000000     0.564720000000     0.048400000000     0.0298412  
H52      H      0.224130000000     0.644320000000     0.050170000000     0.0465229  
H53      H      0.139930000000     0.691400000000     0.029830000000     0.0451295  
H54      H      0.063840000000     0.771940000000     0.031780000000     0.0316246  
H55      H      0.193460000000     0.898940000000     0.957300000000     0.0313892  
H56      H      0.273150000000     0.822050000000     0.958850000000     0.0450006  
H57      H      0.633810000000     0.736570000000     0.036400000000     0.059144   
H58      H      0.551560000000     0.647040000000     0.038570000000     0.00479959 
H59      H      0.655730000000     0.547190000000     0.942710000000     0.00448022 
H60      H      0.739460000000     0.635600000000     0.940440000000     0.0588597  
H61      H      0.748110000000     0.748340000000     0.060150000000     0.0458195  
H62      H      0.834180000000     0.832250000000     0.061940000000     0.0352502  
H63      H      0.838660000000     0.834420000000     0.919260000000     0.0353178  
H64      H      0.751430000000     0.750750000000     0.917800000000     0.0456692  
H65      H      0.640620000000     0.193700000000     0.021620000000     0.0480248  
H66      H      0.560990000000     0.272010000000     0.021190000000     0.0340147  
H67      H      0.702750000000     0.413290000000     0.970790000000     0.032575   
H68      H      0.782100000000     0.334420000000     0.970500000000     0.0478171  
H69      H      0.801280000000     0.230620000000     0.930120000000     0.0461052  
H70      H      0.879320000000     0.150600000000     0.929680000000     0.0356076  
H71      H      0.823410000000     0.095440000000     0.061940000000     0.0357081  
H72      H      0.744660000000     0.174700000000     0.061990000000     0.0463074  
H73      H      0.244000000000     0.319010000000     0.052310000000     0.0593575  
H74      H      0.327940000000     0.407250000000     0.050130000000     0.00570893 
H75      H      0.426800000000     0.311780000000     0.949170000000     0.0051243  
H76      H      0.344440000000     0.222370000000     0.951240000000     0.0591187  
H77      H      0.229300000000     0.211840000000     0.930090000000     0.0459782  
H78      H      0.143130000000     0.128060000000     0.928320000000     0.0355129  
H79      H      0.145010000000     0.119510000000     0.070910000000     0.0355403  
H80      H      0.232380000000     0.203050000000     0.072320000000     0.0457192  
O1       O      0.057120000000     0.913490000000     0.958080000000    -0.37702    
O2       O      0.926930000000     0.047680000000     0.958690000000    -0.377745   
O3       O      0.063160000000     0.048590000000     0.960740000000    -0.396927   
O4       O      0.919750000000     0.911500000000     0.955920000000    -0.395366   
O5       O      0.916600000000     0.909290000000     0.029540000000    -0.397595   
O6       O      0.061520000000     0.044830000000     0.034350000000    -0.394253   
O7       O      0.924500000000     0.044670000000     0.032200000000    -0.377781   
O8       O      0.052540000000     0.908440000000     0.031580000000    -0.376807   
O9       O      0.045260000000     0.920760000000     0.458720000000    -0.377556   
O10      O      0.915050000000     0.055050000000     0.458630000000    -0.377516   
O11      O      0.051490000000     0.056830000000     0.457640000000    -0.39602    
O12      O      0.908870000000     0.918900000000     0.459570000000    -0.397039   
O13      O      0.911310000000     0.918470000000     0.533220000000    -0.396681   
O14      O      0.051040000000     0.059340000000     0.531280000000    -0.396005   
O15      O      0.913920000000     0.054010000000     0.532170000000    -0.377315   
O16      O      0.048350000000     0.923860000000     0.532200000000    -0.377501   
O17      O      0.528860000000     0.511880000000     0.930680000000    -0.465943   
O18      O      0.529330000000     0.521240000000     0.056920000000    -0.464415   
O19      O      0.593600000000     0.456130000000     0.994000000000    -0.449115   
O20      O      0.463960000000     0.577610000000     0.989180000000    -0.450207   
O21      O      0.388180000000     0.500790000000     0.000260000000    -0.448728   
O22      O      0.517070000000     0.378540000000     0.997290000000    -0.451896   
O23      O      0.456240000000     0.440330000000     0.059750000000    -0.466414   
O24      O      0.447630000000     0.439000000000     0.933490000000    -0.464419   
O25      O      0.521370000000     0.528240000000     0.432940000000    -0.46542    
O26      O      0.518390000000     0.524420000000     0.559320000000    -0.46549    
O27      O      0.582600000000     0.464120000000     0.495270000000    -0.448717   
O28      O      0.456240000000     0.589300000000     0.497330000000    -0.451016   
O29      O      0.378780000000     0.512780000000     0.493440000000    -0.450674   
O30      O      0.504950000000     0.387410000000     0.495090000000    -0.449272   
O31      O      0.440380000000     0.448060000000     0.557490000000    -0.465353   
O32      O      0.443770000000     0.451500000000     0.431130000000    -0.465983   


