data_structure

_audit_creation_method RASPA-1.0
_audit_creation_date 2023-5-19
_audit_author_name 'Poobodin Mano'

_cell_length_a    30.7994
_cell_length_b    30.7975
_cell_length_c    30.7972
_cell_angle_alpha 89.9998
_cell_angle_beta  89.9998
_cell_angle_gamma 89.9998
_cell_volume      29212.5

_symmetry_cell_setting          triclinic
_symmetry_space_group_name_Hall 'P 1'
_symmetry_space_group_name_H-M  'P 1'
_symmetry_Int_Tables_number     1

_symmetry_equiv_pos_as_xyz 'x,y,z'

loop_
_atom_site_label
_atom_site_type_symbol
_atom_site_fract_x
_atom_site_fract_y
_atom_site_fract_z
_atom_site_charge
C1       C      0.988150000000     0.074410000000     0.488140000000     0.35651    
C2       C      0.988170000000     0.901880000000     0.488130000000     0.35647    
C3       C      0.074430000000     0.988160000000     0.488120000000     0.356432   
C4       C      0.901900000000     0.988140000000     0.488150000000     0.35649    
C5       C      0.988170000000     0.488140000000     0.401920000000     0.356316   
C6       C      0.988110000000     0.488140000000     0.574450000000     0.35633    
C7       C      0.988140000000     0.401880000000     0.488180000000     0.356413   
C8       C      0.988150000000     0.574410000000     0.488170000000     0.356557   
C9       C      0.488130000000     0.988270000000     0.574430000000     0.356401   
C10      C      0.488200000000     0.988270000000     0.401900000000     0.356403   
C11      C      0.574430000000     0.988260000000     0.488200000000     0.356179   
C12      C      0.401900000000     0.988270000000     0.488130000000     0.356298   
C13      C      0.488140000000     0.988210000000     0.074430000000     0.356395   
C14      C      0.488100000000     0.988210000000     0.901900000000     0.356407   
C15      C      0.488110000000     0.074470000000     0.988170000000     0.356396   
C16      C      0.488140000000     0.901940000000     0.988170000000     0.356562   
C17      C      0.988150000000     0.488060000000     0.074450000000     0.356473   
C18      C      0.988050000000     0.488070000000     0.901920000000     0.356498   
C19      C      0.074360000000     0.488080000000     0.988140000000     0.35642    
C20      C      0.901830000000     0.488050000000     0.988240000000     0.356459   
C21      C      0.488060000000     0.401930000000     0.988240000000     0.356364   
C22      C      0.488130000000     0.574470000000     0.988240000000     0.356401   
C23      C      0.401830000000     0.488230000000     0.988210000000     0.356365   
C24      C      0.574360000000     0.488160000000     0.988270000000     0.35638    
C25      C      0.785220000000     0.451220000000     0.974510000000    -0.0663839  
C26      C      0.762140000000     0.488050000000     0.988300000000     0.0225537  
C27      C      0.785240000000     0.524870000000     0.002080000000    -0.0663068  
C28      C      0.830620000000     0.525000000000     0.001740000000     0.0235699  
C29      C      0.853790000000     0.488040000000     0.988270000000    -0.105487   
C30      C      0.830600000000     0.451080000000     0.974820000000     0.0235325  
C31      C      0.714050000000     0.488060000000     0.988300000000     0.0225976  
C32      C      0.690960000000     0.474290000000     0.951470000000    -0.0664161  
C33      C      0.645580000000     0.474640000000     0.951330000000     0.0235544  
C34      C      0.622400000000     0.488130000000     0.988280000000    -0.105509   
C35      C      0.645580000000     0.501570000000     0.025240000000     0.023628   
C36      C      0.690960000000     0.501870000000     0.025120000000    -0.0663857  
C37      C      0.190980000000     0.451300000000     0.001920000000    -0.0664038  
C38      C      0.214050000000     0.488140000000     0.988140000000     0.0226215  
C39      C      0.190950000000     0.524950000000     0.974350000000    -0.0664275  
C40      C      0.145570000000     0.525060000000     0.974660000000     0.0235581  
C41      C      0.122400000000     0.488090000000     0.988130000000    -0.105512   
C42      C      0.145600000000     0.451150000000     0.001590000000     0.0236393  
C43      C      0.262140000000     0.488170000000     0.988160000000     0.0225489  
C44      C      0.285220000000     0.474400000000     0.024990000000    -0.0663196  
C45      C      0.330600000000     0.474750000000     0.025150000000     0.0235657  
C46      C      0.353790000000     0.488220000000     0.988200000000    -0.105464   
C47      C      0.330620000000     0.501670000000     0.951230000000     0.0235091  
C48      C      0.285240000000     0.501970000000     0.951350000000    -0.0663392  
C49      C      0.474370000000     0.691080000000     0.025050000000    -0.0663887  
C50      C      0.488160000000     0.714160000000     0.988220000000     0.0226028  
C51      C      0.501950000000     0.691060000000     0.951400000000    -0.0664337  
C52      C      0.501620000000     0.645680000000     0.951280000000     0.0235903  
C53      C      0.488150000000     0.622510000000     0.988240000000    -0.105545   
C54      C      0.474690000000     0.645700000000     0.025190000000     0.0236479  
C55      C      0.488160000000     0.762250000000     0.988210000000     0.0225672  
C56      C      0.451340000000     0.785340000000     0.001980000000    -0.0663181  
C57      C      0.451200000000     0.830720000000     0.001650000000     0.0236273  
C58      C      0.488150000000     0.853900000000     0.988180000000    -0.10557    
C59      C      0.525110000000     0.830720000000     0.974730000000     0.0235743  
C60      C      0.524980000000     0.785340000000     0.974420000000    -0.0663868  
C61      C      0.524900000000     0.191080000000     0.001980000000    -0.0663661  
C62      C      0.488070000000     0.214160000000     0.988210000000     0.0225866  
C63      C      0.451250000000     0.191070000000     0.974430000000    -0.0663965  
C64      C      0.451130000000     0.145680000000     0.974730000000     0.0235531  
C65      C      0.488090000000     0.122510000000     0.988180000000    -0.105511   
C66      C      0.525040000000     0.145700000000     0.001640000000     0.0236194  
C67      C      0.488060000000     0.262250000000     0.988220000000     0.0226093  
C68      C      0.501830000000     0.285330000000     0.025050000000    -0.0663413  
C69      C      0.501510000000     0.330710000000     0.025200000000     0.0236046  
C70      C      0.488050000000     0.353890000000     0.988240000000    -0.105533   
C71      C      0.474590000000     0.330720000000     0.951280000000     0.023608   
C72      C      0.474270000000     0.285340000000     0.951400000000    -0.0664686  
C73      C      0.501860000000     0.025090000000     0.691040000000    -0.0663303  
C74      C      0.488080000000     0.988260000000     0.714120000000     0.0225713  
C75      C      0.474310000000     0.951440000000     0.691020000000    -0.0663766  
C76      C      0.474640000000     0.951310000000     0.645640000000     0.0235628  
C77      C      0.488110000000     0.988270000000     0.622470000000    -0.105521   
C78      C      0.501550000000     0.025230000000     0.645660000000     0.0236046  
C79      C      0.488090000000     0.988250000000     0.762210000000     0.0225757  
C80      C      0.524910000000     0.002030000000     0.785300000000    -0.0663415  
C81      C      0.525050000000     0.001700000000     0.830680000000     0.0236056  
C82      C      0.488100000000     0.988230000000     0.853860000000    -0.105505   
C83      C      0.451140000000     0.974770000000     0.830680000000     0.0235401  
C84      C      0.451270000000     0.974460000000     0.785300000000    -0.0663777  
C85      C      0.525000000000     0.974460000000     0.191020000000    -0.0664171  
C86      C      0.488190000000     0.988240000000     0.214120000000     0.0225807  
C87      C      0.451350000000     0.002010000000     0.191040000000    -0.0663637  
C88      C      0.451210000000     0.001680000000     0.145660000000     0.0236357  
C89      C      0.488160000000     0.988220000000     0.122470000000    -0.10553    
C90      C      0.525120000000     0.974770000000     0.145640000000     0.0235943  
C91      C      0.488200000000     0.988250000000     0.262210000000     0.0226251  
C92      C      0.501990000000     0.951430000000     0.285300000000    -0.0664772  
C93      C      0.501670000000     0.951310000000     0.330680000000     0.0236092  
C94      C      0.488210000000     0.988270000000     0.353850000000    -0.105505   
C95      C      0.474750000000     0.025220000000     0.330670000000     0.0236399  
C96      C      0.474420000000     0.025080000000     0.285290000000    -0.0663958  
C97      C      0.951250000000     0.501890000000     0.691040000000    -0.0663966  
C98      C      0.988060000000     0.488100000000     0.714140000000     0.0225792  
C99      C      0.024890000000     0.474330000000     0.691060000000    -0.066352   
C100     C      0.025050000000     0.474670000000     0.645680000000     0.0236009  
C101     C      0.988100000000     0.488130000000     0.622490000000    -0.105489   
C102     C      0.951130000000     0.501580000000     0.645660000000     0.0235486  
C103     C      0.988050000000     0.488090000000     0.762230000000     0.0226097  
C104     C      0.974260000000     0.524900000000     0.785320000000    -0.066413   
C105     C      0.974570000000     0.525030000000     0.830700000000     0.0235619  
C106     C      0.988040000000     0.488070000000     0.853880000000    -0.105541   
C107     C      0.001500000000     0.451110000000     0.830690000000     0.0236362  
C108     C      0.001820000000     0.451250000000     0.785310000000    -0.0664     
C109     C      0.001960000000     0.524890000000     0.191040000000    -0.0663702  
C110     C      0.988200000000     0.488070000000     0.214140000000     0.0226014  
C111     C      0.974420000000     0.451230000000     0.191060000000    -0.0664555  
C112     C      0.974730000000     0.451100000000     0.145680000000     0.0236068  
C113     C      0.988170000000     0.488060000000     0.122490000000    -0.105563   
C114     C      0.001630000000     0.525020000000     0.145660000000     0.0236499  
C115     C      0.988200000000     0.488080000000     0.262230000000     0.0225858  
C116     C      0.025010000000     0.501880000000     0.285320000000    -0.0663709  
C117     C      0.025140000000     0.501570000000     0.330700000000     0.0235995  
C118     C      0.988180000000     0.488120000000     0.353870000000    -0.105449   
C119     C      0.951230000000     0.474640000000     0.330700000000     0.0235642  
C120     C      0.951370000000     0.474300000000     0.285320000000    -0.0664201  
C121     C      0.191030000000     0.002010000000     0.524910000000    -0.0663747  
C122     C      0.214120000000     0.988240000000     0.488090000000     0.0226026  
C123     C      0.191030000000     0.974440000000     0.451270000000    -0.0663973  
C124     C      0.145650000000     0.974740000000     0.451140000000     0.0235348  
C125     C      0.122470000000     0.988190000000     0.488110000000    -0.105496   
C126     C      0.145650000000     0.001660000000     0.525060000000     0.0236238  
C127     C      0.262210000000     0.988250000000     0.488080000000     0.0225556  
C128     C      0.285290000000     0.025080000000     0.501870000000    -0.0663297  
C129     C      0.330670000000     0.025220000000     0.501560000000     0.0235592  
C130     C      0.353850000000     0.988270000000     0.488100000000    -0.105405   
C131     C      0.330690000000     0.951310000000     0.474630000000     0.0234976  
C132     C      0.285310000000     0.951440000000     0.474300000000    -0.0663462  
C133     C      0.785300000000     0.001980000000     0.451360000000    -0.0663792  
C134     C      0.762210000000     0.988210000000     0.488190000000     0.0225802  
C135     C      0.785300000000     0.974410000000     0.525010000000    -0.0663859  
C136     C      0.830680000000     0.974700000000     0.525130000000     0.0235335  
C137     C      0.853860000000     0.988160000000     0.488160000000    -0.105537   
C138     C      0.830670000000     0.001630000000     0.451220000000     0.0236624  
C139     C      0.714120000000     0.988220000000     0.488210000000     0.0225809  
C140     C      0.691040000000     0.025060000000     0.474420000000    -0.0663616  
C141     C      0.645660000000     0.025210000000     0.474750000000     0.0235538  
C142     C      0.622470000000     0.988250000000     0.488210000000    -0.105409   
C143     C      0.645640000000     0.951290000000     0.501670000000     0.0235257  
C144     C      0.691020000000     0.951410000000     0.501990000000    -0.0663996  
C145     C      0.024980000000     0.691010000000     0.501940000000    -0.0663617  
C146     C      0.988170000000     0.714100000000     0.488150000000     0.0225994  
C147     C      0.951340000000     0.691020000000     0.474360000000    -0.0664298  
C148     C      0.951200000000     0.645630000000     0.474700000000     0.0235814  
C149     C      0.988150000000     0.622450000000     0.488170000000    -0.105568   
C150     C      0.025110000000     0.645630000000     0.501630000000     0.0236239  
C151     C      0.988170000000     0.762190000000     0.488140000000     0.0225957  
C152     C      0.001950000000     0.785280000000     0.524960000000    -0.0663751  
C153     C      0.001630000000     0.830660000000     0.525090000000     0.0236529  
C154     C      0.988180000000     0.853840000000     0.488130000000    -0.105559   
C155     C      0.974720000000     0.830660000000     0.451170000000     0.0235774  
C156     C      0.974390000000     0.785280000000     0.451310000000    -0.0664297  
C157     C      0.024960000000     0.285280000000     0.474390000000    -0.0663814  
C158     C      0.988140000000     0.262190000000     0.488160000000     0.0225981  
C159     C      0.951310000000     0.285280000000     0.501940000000    -0.0664227  
C160     C      0.951180000000     0.330660000000     0.501630000000     0.0235786  
C161     C      0.988140000000     0.353840000000     0.488180000000    -0.105515   
C162     C      0.025100000000     0.330660000000     0.474720000000     0.0236116  
C163     C      0.988140000000     0.214100000000     0.488150000000     0.0225891  
C164     C      0.001920000000     0.191020000000     0.451320000000    -0.0663605  
C165     C      0.001600000000     0.145640000000     0.451180000000     0.0236042  
C166     C      0.988150000000     0.122460000000     0.488140000000    -0.105479   
C167     C      0.974680000000     0.145630000000     0.525100000000     0.0235527  
C168     C      0.974360000000     0.191010000000     0.524970000000    -0.0663979  
Cu1      Cu     0.988170000000     0.988150000000     0.528350000000     0.839646   
Cu2      Cu     0.988160000000     0.988150000000     0.447920000000     0.839667   
Cu3      Cu     0.028350000000     0.488140000000     0.488190000000     0.839839   
Cu4      Cu     0.947930000000     0.488150000000     0.488170000000     0.839709   
Cu5      Cu     0.488160000000     0.948060000000     0.488160000000     0.839798   
Cu6      Cu     0.488170000000     0.028480000000     0.488160000000     0.839694   
Cu7      Cu     0.528330000000     0.988210000000     0.988150000000     0.839696   
Cu8      Cu     0.447920000000     0.988200000000     0.988170000000     0.839738   
Cu9      Cu     0.988100000000     0.447850000000     0.988180000000     0.8396     
Cu10     Cu     0.988090000000     0.528270000000     0.988180000000     0.839704   
Cu11     Cu     0.488080000000     0.488200000000     0.028450000000     0.839725   
Cu12     Cu     0.488110000000     0.488200000000     0.948030000000     0.839702   
H1       H      0.768170000000     0.553780000000     0.012600000000     0.0472246  
H2       H      0.847520000000     0.553930000000     0.012410000000     0.0350454  
H3       H      0.847500000000     0.422150000000     0.964130000000     0.0350318  
H4       H      0.768140000000     0.422320000000     0.964000000000     0.0472319  
H5       H      0.708030000000     0.463770000000     0.922570000000     0.0472491  
H6       H      0.628680000000     0.463980000000     0.922390000000     0.0350272  
H7       H      0.628680000000     0.512270000000     0.054170000000     0.0350186  
H8       H      0.708040000000     0.512370000000     0.054020000000     0.0472541  
H9       H      0.208010000000     0.553860000000     0.963840000000     0.0472495  
H10      H      0.128650000000     0.553990000000     0.963980000000     0.0350325  
H11      H      0.128710000000     0.422210000000     0.012270000000     0.0350306  
H12      H      0.208060000000     0.422410000000     0.012440000000     0.0472717  
H13      H      0.268140000000     0.463880000000     0.053890000000     0.0472319  
H14      H      0.347490000000     0.464080000000     0.054090000000     0.035036   
H15      H      0.347530000000     0.512350000000     0.922300000000     0.0350388  
H16      H      0.268170000000     0.512470000000     0.922430000000     0.0472132  
H17      H      0.512470000000     0.708130000000     0.922500000000     0.0472537  
H18      H      0.512300000000     0.628770000000     0.922350000000     0.0350243  
H19      H      0.464000000000     0.628800000000     0.054130000000     0.0350176  
H20      H      0.463860000000     0.708160000000     0.053950000000     0.0472514  
H21      H      0.422430000000     0.768260000000     0.012500000000     0.0472205  
H22      H      0.422260000000     0.847620000000     0.012320000000     0.0350356  
H23      H      0.554040000000     0.847620000000     0.964050000000     0.0350157  
H24      H      0.553890000000     0.768260000000     0.963920000000     0.0472219  
H25      H      0.422340000000     0.208140000000     0.963930000000     0.0472389  
H26      H      0.422200000000     0.128780000000     0.964060000000     0.0350346  
H27      H      0.553980000000     0.128800000000     0.012310000000     0.035043   
H28      H      0.553800000000     0.208160000000     0.012490000000     0.0472525  
H29      H      0.512340000000     0.268250000000     0.053960000000     0.04723    
H30      H      0.512180000000     0.347610000000     0.054140000000     0.0350283  
H31      H      0.463920000000     0.347630000000     0.922340000000     0.0350132  
H32      H      0.463770000000     0.268270000000     0.922500000000     0.0472737  
H33      H      0.463800000000     0.922530000000     0.708100000000     0.0472239  
H34      H      0.463970000000     0.922370000000     0.628740000000     0.0350255  
H35      H      0.512230000000     0.054170000000     0.628760000000     0.0350282  
H36      H      0.512370000000     0.054000000000     0.708120000000     0.0472228  
H37      H      0.553810000000     0.012550000000     0.768220000000     0.0472379  
H38      H      0.553980000000     0.012370000000     0.847580000000     0.0350413  
H39      H      0.422210000000     0.964080000000     0.847580000000     0.0350268  
H40      H      0.422360000000     0.963960000000     0.768220000000     0.0472215  
H41      H      0.422450000000     0.012520000000     0.208120000000     0.0472533  
H42      H      0.422260000000     0.012340000000     0.128760000000     0.0350386  
H43      H      0.554050000000     0.964090000000     0.128730000000     0.035027   
H44      H      0.553910000000     0.963960000000     0.208090000000     0.0472419  
H45      H      0.512490000000     0.922530000000     0.268230000000     0.0472756  
H46      H      0.512350000000     0.922370000000     0.347590000000     0.0350155  
H47      H      0.464070000000     0.054160000000     0.347570000000     0.0350175  
H48      H      0.463910000000     0.053980000000     0.268210000000     0.047257   
H49      H      0.053790000000     0.463820000000     0.708140000000     0.0472406  
H50      H      0.053990000000     0.464000000000     0.628780000000     0.0350303  
H51      H      0.922200000000     0.512260000000     0.628750000000     0.035034   
H52      H      0.922340000000     0.512390000000     0.708110000000     0.0472369  
H53      H      0.963750000000     0.553810000000     0.768250000000     0.0472349  
H54      H      0.963900000000     0.553960000000     0.847610000000     0.0350223  
H55      H      0.012180000000     0.422170000000     0.847590000000     0.0350285  
H56      H      0.012340000000     0.422360000000     0.768230000000     0.0472678  
H57      H      0.963930000000     0.422330000000     0.208140000000     0.0472645  
H58      H      0.964060000000     0.422160000000     0.128780000000     0.0350229  
H59      H      0.012290000000     0.553960000000     0.128750000000     0.0350323  
H60      H      0.012470000000     0.553800000000     0.208110000000     0.0472489  
H61      H      0.053910000000     0.512380000000     0.268240000000     0.04725    
H62      H      0.054070000000     0.512260000000     0.347600000000     0.0350208  
H63      H      0.922290000000     0.463960000000     0.347600000000     0.0350289  
H64      H      0.922480000000     0.463780000000     0.268240000000     0.0472568  
H65      H      0.208100000000     0.963940000000     0.422360000000     0.0472382  
H66      H      0.128750000000     0.964050000000     0.422210000000     0.035032   
H67      H      0.128750000000     0.012330000000     0.554000000000     0.0350394  
H68      H      0.208100000000     0.012530000000     0.553810000000     0.0472578  
H69      H      0.268210000000     0.053980000000     0.512380000000     0.0472371  
H70      H      0.347560000000     0.054160000000     0.512240000000     0.035031   
H71      H      0.347600000000     0.922380000000     0.463960000000     0.0350441  
H72      H      0.268240000000     0.922530000000     0.463780000000     0.0472196  
H73      H      0.768230000000     0.963900000000     0.553920000000     0.0472258  
H74      H      0.847590000000     0.964020000000     0.554060000000     0.0350278  
H75      H      0.847570000000     0.012310000000     0.422280000000     0.0350172  
H76      H      0.768220000000     0.012500000000     0.422460000000     0.047249   
H77      H      0.708120000000     0.053950000000     0.463910000000     0.0472566  
H78      H      0.628770000000     0.054150000000     0.464070000000     0.0350433  
H79      H      0.628730000000     0.922360000000     0.512350000000     0.0350352  
H80      H      0.708080000000     0.922500000000     0.512500000000     0.0472417  
H81      H      0.922440000000     0.708090000000     0.463850000000     0.0472546  
H82      H      0.922270000000     0.628730000000     0.464020000000     0.0350238  
H83      H      0.054040000000     0.628720000000     0.512310000000     0.035028   
H84      H      0.053890000000     0.708080000000     0.512450000000     0.0472365  
H85      H      0.012460000000     0.768210000000     0.553870000000     0.0472464  
H86      H      0.012310000000     0.847570000000     0.554030000000     0.0350228  
H87      H      0.964040000000     0.847560000000     0.422240000000     0.0350172  
H88      H      0.963890000000     0.768200000000     0.422410000000     0.0472503  
H89      H      0.922410000000     0.268200000000     0.512440000000     0.0472514  
H90      H      0.922240000000     0.347560000000     0.512300000000     0.0350221  
H91      H      0.054030000000     0.347570000000     0.464050000000     0.0350347  
H92      H      0.053860000000     0.268210000000     0.463880000000     0.0472588  
H93      H      0.012430000000     0.208100000000     0.422420000000     0.0472538  
H94      H      0.012280000000     0.128740000000     0.422250000000     0.0350475  
H95      H      0.964010000000     0.128720000000     0.554040000000     0.0350271  
H96      H      0.963850000000     0.208080000000     0.553880000000     0.0472347  
O1       O      0.986890000000     0.053960000000     0.524400000000    -0.386213   
O2       O      0.989460000000     0.922330000000     0.524390000000    -0.38618    
O3       O      0.053990000000     0.989440000000     0.524380000000    -0.386118   
O4       O      0.922350000000     0.986860000000     0.524410000000    -0.386153   
O5       O      0.922340000000     0.989420000000     0.451890000000    -0.386196   
O6       O      0.053970000000     0.986880000000     0.451860000000    -0.386117   
O7       O      0.986890000000     0.922330000000     0.451870000000    -0.386167   
O8       O      0.989430000000     0.053970000000     0.451880000000    -0.386188   
O9       O      0.024420000000     0.489410000000     0.422380000000    -0.386189   
O10      O      0.024380000000     0.486870000000     0.554010000000    -0.38606    
O11      O      0.024400000000     0.422320000000     0.486920000000    -0.386142   
O12      O      0.024400000000     0.553960000000     0.489470000000    -0.386208   
O13      O      0.951890000000     0.553970000000     0.486890000000    -0.386208   
O14      O      0.951880000000     0.422330000000     0.489450000000    -0.386148   
O15      O      0.951860000000     0.489430000000     0.553990000000    -0.386152   
O16      O      0.951900000000     0.486860000000     0.422360000000    -0.386152   
O17      O      0.486860000000     0.952010000000     0.553980000000    -0.386157   
O18      O      0.489470000000     0.952010000000     0.422350000000    -0.386219   
O19      O      0.553970000000     0.952000000000     0.489470000000    -0.386094   
O20      O      0.422350000000     0.952010000000     0.486860000000    -0.38616    
O21      O      0.422350000000     0.024530000000     0.489410000000    -0.386054   
O22      O      0.553990000000     0.024530000000     0.486910000000    -0.385981   
O23      O      0.486920000000     0.024530000000     0.422350000000    -0.386171   
O24      O      0.489420000000     0.024530000000     0.553980000000    -0.386118   
O25      O      0.524400000000     0.986930000000     0.053970000000    -0.386073   
O26      O      0.524370000000     0.989490000000     0.922340000000    -0.386179   
O27      O      0.524370000000     0.054030000000     0.989440000000    -0.386149   
O28      O      0.524390000000     0.922400000000     0.986880000000    -0.386256   
O29      O      0.451880000000     0.922380000000     0.989450000000    -0.386203   
O30      O      0.451850000000     0.054010000000     0.986900000000    -0.386141   
O31      O      0.451850000000     0.986920000000     0.922360000000    -0.386236   
O32      O      0.451880000000     0.989470000000     0.053990000000    -0.386143   
O33      O      0.986860000000     0.451800000000     0.054000000000    -0.386143   
O34      O      0.989340000000     0.451800000000     0.922370000000    -0.386176   
O35      O      0.053920000000     0.451820000000     0.989420000000    -0.386123   
O36      O      0.922280000000     0.451790000000     0.986940000000    -0.386125   
O37      O      0.922270000000     0.524310000000     0.989500000000    -0.386171   
O38      O      0.053900000000     0.524340000000     0.986870000000    -0.386115   
O39      O      0.986780000000     0.524320000000     0.922370000000    -0.386292   
O40      O      0.989400000000     0.524320000000     0.054000000000    -0.386153   
O41      O      0.489340000000     0.422380000000     0.024500000000    -0.386095   
O42      O      0.486830000000     0.554020000000     0.024500000000    -0.386106   
O43      O      0.422270000000     0.486950000000     0.024480000000    -0.386097   
O44      O      0.553900000000     0.489450000000     0.024520000000    -0.386107   
O45      O      0.553920000000     0.486900000000     0.952000000000    -0.386137   
O46      O      0.422290000000     0.489500000000     0.951960000000    -0.386139   
O47      O      0.489410000000     0.554020000000     0.951980000000    -0.386146   
O48      O      0.486800000000     0.422390000000     0.951980000000    -0.386166   


