data_structure

_audit_creation_method RASPA-1.0
_audit_creation_date 2023-5-22
_audit_author_name 'Poobodin Mano'

_cell_length_a    29.0928
_cell_length_b    30.626
_cell_length_c    30.7064
_cell_angle_alpha 89.9998
_cell_angle_beta  89.999
_cell_angle_gamma 90.0048
_cell_volume      27359.3

_symmetry_cell_setting          triclinic
_symmetry_space_group_name_Hall 'P 1'
_symmetry_space_group_name_H-M  'P 1'
_symmetry_Int_Tables_number     1

_symmetry_equiv_pos_as_xyz 'x,y,z'

loop_
_atom_site_label
_atom_site_type_symbol
_atom_site_fract_x
_atom_site_fract_y
_atom_site_fract_z
_atom_site_charge
C1       C      0.975580000000     0.490920000000     0.075800000000     0.360572   
C2       C      0.975560000000     0.490760000000     0.903460000000     0.360452   
C3       C      0.975570000000     0.577600000000     0.989560000000     0.356315   
C4       C      0.975580000000     0.404070000000     0.989710000000     0.356174   
C5       C      0.975580000000     0.490880000000     0.575800000000     0.360372   
C6       C      0.975610000000     0.491030000000     0.403460000000     0.360246   
C7       C      0.975590000000     0.577720000000     0.489700000000     0.356367   
C8       C      0.975590000000     0.404190000000     0.489560000000     0.356304   
C9       C      0.975620000000     0.907740000000     0.989580000000     0.425456   
C10      C      0.975630000000     0.073940000000     0.989660000000     0.42536    
C11      C      0.975620000000     0.990880000000     0.905870000000     0.413589   
C12      C      0.975640000000     0.990810000000     0.073370000000     0.413331   
C13      C      0.975580000000     0.907860000000     0.489660000000     0.425495   
C14      C      0.975580000000     0.074060000000     0.489580000000     0.425577   
C15      C      0.975610000000     0.990910000000     0.405870000000     0.413417   
C16      C      0.975580000000     0.990980000000     0.573370000000     0.413552   
C17      C      0.475590000000     0.990870000000     0.075760000000     0.360786   
C18      C      0.475670000000     0.990860000000     0.903410000000     0.360779   
C19      C      0.567020000000     0.990860000000     0.989620000000     0.355591   
C20      C      0.384250000000     0.990860000000     0.989550000000     0.355762   
C21      C      0.475630000000     0.990920000000     0.575760000000     0.360816   
C22      C      0.475550000000     0.990920000000     0.403410000000     0.36078    
C23      C      0.566970000000     0.990930000000     0.489550000000     0.355716   
C24      C      0.384200000000     0.990930000000     0.489620000000     0.355528   
C25      C      0.462120000000     0.028300000000     0.692240000000    -0.0670064  
C26      C      0.475700000000     0.990900000000     0.715450000000     0.0233048  
C27      C      0.489260000000     0.953510000000     0.692210000000    -0.0670895  
C28      C      0.488950000000     0.953430000000     0.646810000000     0.0256824  
C29      C      0.475660000000     0.990920000000     0.623710000000    -0.108828   
C30      C      0.462390000000     0.028400000000     0.646830000000     0.0257332  
C31      C      0.475710000000     0.990880000000     0.763710000000     0.0232618  
C32      C      0.489280000000     0.028280000000     0.786950000000    -0.0669939  
C33      C      0.488980000000     0.028360000000     0.832360000000     0.0257262  
C34      C      0.475690000000     0.990870000000     0.855460000000    -0.108782   
C35      C      0.462410000000     0.953380000000     0.832340000000     0.0256064  
C36      C      0.462130000000     0.953480000000     0.786930000000    -0.0670499  
C37      C      0.489100000000     0.953480000000     0.192240000000    -0.0670969  
C38      C      0.475530000000     0.990890000000     0.215450000000     0.0232798  
C39      C      0.461970000000     0.028280000000     0.192210000000    -0.0669665  
C40      C      0.462270000000     0.028360000000     0.146810000000     0.0257293  
C41      C      0.475560000000     0.990870000000     0.123710000000    -0.108811   
C42      C      0.488830000000     0.953390000000     0.146830000000     0.0256821  
C43      C      0.475520000000     0.990900000000     0.263720000000     0.0233032  
C44      C      0.461950000000     0.953510000000     0.286950000000    -0.0670717  
C45      C      0.462240000000     0.953430000000     0.332360000000     0.0256617  
C46      C      0.475530000000     0.990920000000     0.355460000000    -0.108827   
C47      C      0.488810000000     0.028400000000     0.332340000000     0.0257751  
C48      C      0.489090000000     0.028310000000     0.286940000000    -0.0670433  
C49      C      0.260610000000     0.030450000000     0.490320000000    -0.0600283  
C50      C      0.236030000000     0.990940000000     0.489640000000     0.00999445 
C51      C      0.260590000000     0.951430000000     0.488970000000    -0.0601086  
C52      C      0.308630000000     0.951410000000     0.489010000000     0.0199697  
C53      C      0.333240000000     0.990930000000     0.489630000000    -0.102789   
C54      C      0.308650000000     0.030460000000     0.490270000000     0.0200185  
C55      C      0.184960000000     0.990940000000     0.489640000000     0.0540325  
C56      C      0.160350000000     0.020060000000     0.516390000000    -0.108321   
C57      C      0.112300000000     0.019950000000     0.516340000000     0.110786   
C58      C      0.088240000000     0.990950000000     0.489630000000    -0.307814   
C59      C      0.112300000000     0.961950000000     0.462930000000     0.110806   
C60      C      0.160340000000     0.961830000000     0.462880000000    -0.108475   
C61      C      0.690570000000     0.951420000000     0.490280000000    -0.060177   
C62      C      0.715150000000     0.990930000000     0.489560000000     0.0100181  
C63      C      0.690580000000     0.030440000000     0.488830000000    -0.060087   
C64      C      0.642540000000     0.030450000000     0.488870000000     0.0201064  
C65      C      0.617930000000     0.990930000000     0.489540000000    -0.102901   
C66      C      0.642540000000     0.951410000000     0.490220000000     0.0200447  
C67      C      0.766220000000     0.990940000000     0.489570000000     0.0540463  
C68      C      0.790820000000     0.961870000000     0.516370000000    -0.10844    
C69      C      0.838860000000     0.961990000000     0.516340000000     0.110716   
C70      C      0.862940000000     0.990950000000     0.489600000000    -0.307701   
C71      C      0.838880000000     0.019910000000     0.462850000000     0.110766   
C72      C      0.790830000000     0.020020000000     0.462780000000    -0.108367   
C73      C      0.160400000000     0.019930000000     0.016360000000    -0.10825    
C74      C      0.185000000000     0.990850000000     0.989570000000     0.0539565  
C75      C      0.160380000000     0.961770000000     0.962790000000    -0.108373   
C76      C      0.112340000000     0.961870000000     0.962860000000     0.110693   
C77      C      0.088280000000     0.990840000000     0.989600000000    -0.307736   
C78      C      0.112360000000     0.019820000000     0.016330000000     0.110768   
C79      C      0.236070000000     0.990850000000     0.989550000000     0.0100469  
C80      C      0.260650000000     0.030370000000     0.990260000000    -0.0601224  
C81      C      0.308680000000     0.030380000000     0.990210000000     0.0201298  
C82      C      0.333290000000     0.990860000000     0.989540000000    -0.102921   
C83      C      0.308680000000     0.951340000000     0.988880000000     0.0200456  
C84      C      0.260640000000     0.951350000000     0.988840000000    -0.0601819  
C85      C      0.790870000000     0.019950000000     0.962870000000    -0.108387   
C86      C      0.766260000000     0.990850000000     0.989640000000     0.0539785  
C87      C      0.790870000000     0.961740000000     0.016400000000    -0.108356   
C88      C      0.838910000000     0.961850000000     0.016350000000     0.110741   
C89      C      0.862980000000     0.990840000000     0.989630000000    -0.307767   
C90      C      0.838920000000     0.019830000000     0.962920000000     0.110807   
C91      C      0.715190000000     0.990850000000     0.989650000000     0.0100232  
C92      C      0.690630000000     0.030370000000     0.988960000000    -0.0601155  
C93      C      0.642590000000     0.030380000000     0.989000000000     0.0201068  
C94      C      0.617970000000     0.990860000000     0.989630000000    -0.102912   
C95      C      0.642570000000     0.951340000000     0.990280000000     0.0200336  
C96      C      0.690610000000     0.951340000000     0.990330000000    -0.0601514  
C97      C      0.015420000000     0.979790000000     0.787900000000    -0.0687654  
C98      C      0.975600000000     0.990950000000     0.764160000000     0.0238392  
C99      C      0.935780000000     0.002090000000     0.787920000000    -0.0688752  
C100     C      0.935720000000     0.001810000000     0.833660000000     0.0313594  
C101     C      0.975610000000     0.990910000000     0.857190000000    -0.123091   
C102     C      0.015500000000     0.980030000000     0.833630000000     0.0314544  
C103     C      0.975590000000     0.990970000000     0.715070000000     0.0238846  
C104     C      0.015410000000     0.002130000000     0.691320000000    -0.0687351  
C105     C      0.015470000000     0.001880000000     0.645590000000     0.0316003  
C106     C      0.975580000000     0.990990000000     0.622050000000    -0.123128   
C107     C      0.935700000000     0.980090000000     0.645590000000     0.0313126  
C108     C      0.935770000000     0.979820000000     0.691330000000    -0.0689878  
C109     C      0.935820000000     0.979660000000     0.191320000000    -0.0689384  
C110     C      0.975640000000     0.990820000000     0.215070000000     0.023846   
C111     C      0.015460000000     0.001970000000     0.191320000000    -0.0687095  
C112     C      0.015530000000     0.001700000000     0.145590000000     0.0315325  
C113     C      0.975640000000     0.990800000000     0.122050000000    -0.123007   
C114     C      0.935750000000     0.979910000000     0.145590000000     0.0312568  
C115     C      0.975630000000     0.990840000000     0.264160000000     0.0238636  
C116     C      0.935810000000     0.002000000000     0.287900000000    -0.0688649  
C117     C      0.935730000000     0.001760000000     0.333640000000     0.0313678  
C118     C      0.975610000000     0.990890000000     0.357190000000    -0.123063   
C119     C      0.015500000000     0.979990000000     0.333660000000     0.0314766  
C120     C      0.015440000000     0.979700000000     0.287920000000    -0.0688034  
C121     C      0.936180000000     0.694990000000     0.502380000000    -0.0648887  
C122     C      0.975580000000     0.718470000000     0.489740000000     0.0204865  
C123     C      0.014990000000     0.695010000000     0.477100000000    -0.0646798  
C124     C      0.015080000000     0.649380000000     0.477370000000     0.0231913  
C125     C      0.975590000000     0.626060000000     0.489730000000    -0.105147   
C126     C      0.936100000000     0.649360000000     0.502090000000     0.0230376  
C127     C      0.975580000000     0.767130000000     0.489740000000     0.0273567  
C128     C      0.935900000000     0.790590000000     0.477860000000    -0.0726408  
C129     C      0.935820000000     0.836220000000     0.478110000000     0.0362144  
C130     C      0.975570000000     0.859540000000     0.489690000000    -0.131645   
C131     C      0.015330000000     0.836240000000     0.501300000000     0.0363282  
C132     C      0.015250000000     0.790600000000     0.501590000000    -0.0724449  
C133     C      0.935910000000     0.191320000000     0.501380000000    -0.0726283  
C134     C      0.975590000000     0.214780000000     0.489520000000     0.0273768  
C135     C      0.015260000000     0.191310000000     0.477680000000    -0.07247    
C136     C      0.015340000000     0.145680000000     0.477970000000     0.0364626  
C137     C      0.975590000000     0.122370000000     0.489560000000    -0.131781   
C138     C      0.935820000000     0.145690000000     0.501130000000     0.0361939  
C139     C      0.975590000000     0.263450000000     0.489520000000     0.0204908  
C140     C      0.936200000000     0.286910000000     0.476870000000    -0.0648342  
C141     C      0.936110000000     0.332540000000     0.477150000000     0.0229664  
C142     C      0.975600000000     0.355860000000     0.489540000000    -0.105163   
C143     C      0.015080000000     0.332540000000     0.501900000000     0.0232013  
C144     C      0.014990000000     0.286910000000     0.502170000000    -0.0646705  
C145     C      0.014900000000     0.477760000000     0.786990000000    -0.0668456  
C146     C      0.975550000000     0.490720000000     0.763760000000     0.0232175  
C147     C      0.936200000000     0.503670000000     0.786980000000    -0.0670165  
C148     C      0.936120000000     0.503410000000     0.832390000000     0.0256079  
C149     C      0.975550000000     0.490730000000     0.855500000000    -0.108835   
C150     C      0.014980000000     0.478030000000     0.832390000000     0.0257962  
C151     C      0.975560000000     0.490740000000     0.715510000000     0.0231447  
C152     C      0.014910000000     0.503720000000     0.692300000000    -0.0667311  
C153     C      0.015010000000     0.503510000000     0.646890000000     0.0256431  
C154     C      0.975570000000     0.490830000000     0.623760000000    -0.108687   
C155     C      0.936140000000     0.478100000000     0.646860000000     0.0255048  
C156     C      0.936220000000     0.477800000000     0.692270000000    -0.0669286  
C157     C      0.936250000000     0.478070000000     0.192300000000    -0.066996   
C158     C      0.975600000000     0.491050000000     0.215500000000     0.0232174  
C159     C      0.014940000000     0.503990000000     0.192270000000    -0.0667898  
C160     C      0.015030000000     0.503690000000     0.146860000000     0.0257247  
C161     C      0.975590000000     0.490970000000     0.123760000000    -0.108791   
C162     C      0.936160000000     0.478290000000     0.146890000000     0.0255655  
C163     C      0.975610000000     0.491070000000     0.263760000000     0.0231704  
C164     C      0.936270000000     0.504030000000     0.286990000000    -0.0669544  
C165     C      0.936180000000     0.503760000000     0.332390000000     0.0255416  
C166     C      0.975610000000     0.491060000000     0.355500000000    -0.108708   
C167     C      0.015050000000     0.478380000000     0.332390000000     0.0256961  
C168     C      0.014960000000     0.478120000000     0.286980000000    -0.0667793  
C169     C      0.936190000000     0.694890000000     0.002160000000    -0.0647628  
C170     C      0.975590000000     0.718350000000     0.989510000000     0.0204158  
C171     C      0.014980000000     0.694880000000     0.976870000000    -0.0646296  
C172     C      0.015060000000     0.649250000000     0.977150000000     0.0231486  
C173     C      0.975570000000     0.625940000000     0.989530000000    -0.105152   
C174     C      0.936090000000     0.649260000000     0.001900000000     0.0230079  
C175     C      0.975600000000     0.767020000000     0.989520000000     0.0273499  
C176     C      0.935930000000     0.790490000000     0.977670000000    -0.0726772  
C177     C      0.935860000000     0.836110000000     0.977960000000     0.0362373  
C178     C      0.975620000000     0.859420000000     0.989550000000    -0.131743   
C179     C      0.015370000000     0.836100000000     0.001120000000     0.0364639  
C180     C      0.015280000000     0.790470000000     0.001380000000    -0.072413   
C181     C      0.935950000000     0.191180000000     0.001600000000    -0.072567   
C182     C      0.975610000000     0.214660000000     0.989740000000     0.0273072  
C183     C      0.015290000000     0.191210000000     0.977870000000    -0.0724105  
C184     C      0.015380000000     0.145580000000     0.978110000000     0.0363609  
C185     C      0.975630000000     0.122260000000     0.989700000000    -0.131675   
C186     C      0.935870000000     0.145550000000     0.001300000000     0.0362336  
C187     C      0.975600000000     0.263330000000     0.989750000000     0.0204543  
C188     C      0.936190000000     0.286780000000     0.977110000000    -0.064867   
C189     C      0.936090000000     0.332410000000     0.977380000000     0.022993   
C190     C      0.975580000000     0.355740000000     0.989730000000    -0.105161   
C191     C      0.015080000000     0.332440000000     0.002100000000     0.0231866  
C192     C      0.015000000000     0.286800000000     0.002380000000    -0.0646085  
Cu1      Cu     0.018170000000     0.490840000000     0.989630000000     0.844259   
Cu2      Cu     0.932980000000     0.490830000000     0.989640000000     0.84391    
Cu3      Cu     0.018180000000     0.490960000000     0.489640000000     0.844245   
Cu4      Cu     0.933000000000     0.490950000000     0.489630000000     0.84378    
Cu5      Cu     0.928920000000     0.990840000000     0.989620000000     1.16834    
Cu6      Cu     0.022340000000     0.990840000000     0.989610000000     1.16849    
Cu7      Cu     0.928880000000     0.990950000000     0.489610000000     1.16834    
Cu8      Cu     0.022300000000     0.990960000000     0.489620000000     1.16864    
Cu9      Cu     0.475630000000     0.950410000000     0.989590000000     0.843949   
Cu10     Cu     0.475640000000     0.031320000000     0.989580000000     0.843939   
Cu11     Cu     0.475580000000     0.950470000000     0.489590000000     0.843942   
Cu12     Cu     0.475590000000     0.031380000000     0.489590000000     0.844098   
H1       H      0.500690000000     0.924400000000     0.709050000000     0.0466826  
H2       H      0.499730000000     0.924160000000     0.629830000000     0.0343349  
H3       H      0.451600000000     0.057670000000     0.629870000000     0.0343407  
H4       H      0.450700000000     0.057400000000     0.709100000000     0.0466876  
H5       H      0.500710000000     0.057380000000     0.770100000000     0.0466877  
H6       H      0.499770000000     0.057630000000     0.849330000000     0.0343418  
H7       H      0.451620000000     0.924110000000     0.849300000000     0.0343478  
H8       H      0.450700000000     0.924380000000     0.770080000000     0.0466816  
H9       H      0.450530000000     0.057390000000     0.209060000000     0.0466662  
H10      H      0.451500000000     0.057630000000     0.129830000000     0.034352   
H11      H      0.499620000000     0.924110000000     0.129870000000     0.0343412  
H12      H      0.500530000000     0.924390000000     0.209100000000     0.0467018  
H13      H      0.450510000000     0.924400000000     0.270110000000     0.0466811  
H14      H      0.451450000000     0.924160000000     0.349330000000     0.0343409  
H15      H      0.499600000000     0.057680000000     0.349300000000     0.0343246  
H16      H      0.500530000000     0.057400000000     0.270080000000     0.0467036  
H17      H      0.242680000000     0.920420000000     0.488980000000     0.044719   
H18      H      0.326420000000     0.920350000000     0.488610000000     0.0361652  
H19      H      0.326450000000     0.061510000000     0.490670000000     0.036175   
H20      H      0.242710000000     0.061460000000     0.490310000000     0.0447226  
H21      H      0.178200000000     0.042510000000     0.537760000000     0.0567457  
H22      H      0.093690000000     0.042330000000     0.537120000000     0.00592634 
H23      H      0.093680000000     0.939580000000     0.442140000000     0.00591441 
H24      H      0.178190000000     0.939380000000     0.441520000000     0.0567733  
H25      H      0.708480000000     0.061450000000     0.488800000000     0.0447337  
H26      H      0.624740000000     0.061510000000     0.488430000000     0.0361437  
H27      H      0.624740000000     0.920350000000     0.490660000000     0.0361405  
H28      H      0.708480000000     0.920420000000     0.490310000000     0.0447412  
H29      H      0.772960000000     0.939450000000     0.537770000000     0.0567369  
H30      H      0.857470000000     0.939640000000     0.537160000000     0.00592375 
H31      H      0.857510000000     0.042260000000     0.442040000000     0.00594298 
H32      H      0.772990000000     0.042440000000     0.441380000000     0.0567581  
H33      H      0.178230000000     0.939340000000     0.941390000000     0.0567173  
H34      H      0.093710000000     0.939520000000     0.942050000000     0.00594541 
H35      H      0.093740000000     0.042170000000     0.037140000000     0.00596396 
H36      H      0.178260000000     0.042360000000     0.037750000000     0.056737   
H37      H      0.242740000000     0.061370000000     0.990290000000     0.0447408  
H38      H      0.326480000000     0.061440000000     0.990640000000     0.0361357  
H39      H      0.326480000000     0.920280000000     0.988450000000     0.036139   
H40      H      0.242740000000     0.920340000000     0.988820000000     0.0447377  
H41      H      0.773010000000     0.939300000000     0.037780000000     0.0567311  
H42      H      0.857530000000     0.939480000000     0.037140000000     0.00593234 
H43      H      0.857540000000     0.042200000000     0.942130000000     0.00591762 
H44      H      0.773030000000     0.042390000000     0.941500000000     0.0567719  
H45      H      0.708540000000     0.061370000000     0.988960000000     0.0447402  
H46      H      0.624800000000     0.061440000000     0.988590000000     0.0361399  
H47      H      0.624770000000     0.920280000000     0.990690000000     0.0361461  
H48      H      0.708520000000     0.920330000000     0.990330000000     0.0447108  
H49      H      0.904590000000     0.011720000000     0.771290000000     0.0470993  
H50      H      0.904420000000     0.010670000000     0.850590000000     0.0329757  
H51      H      0.046810000000     0.971150000000     0.850550000000     0.0329544  
H52      H      0.046610000000     0.970180000000     0.771250000000     0.0470646  
H53      H      0.046600000000     0.011750000000     0.707960000000     0.0471125  
H54      H      0.046780000000     0.010760000000     0.628670000000     0.0329597  
H55      H      0.904390000000     0.971220000000     0.628670000000     0.0329451  
H56      H      0.904580000000     0.970190000000     0.707970000000     0.0470731  
H57      H      0.046640000000     0.011600000000     0.207960000000     0.0471171  
H58      H      0.046840000000     0.010570000000     0.128670000000     0.0329785  
H59      H      0.904450000000     0.971030000000     0.128670000000     0.0329734  
H60      H      0.904630000000     0.970040000000     0.207970000000     0.0470605  
H61      H      0.904620000000     0.011620000000     0.271250000000     0.0470877  
H62      H      0.904420000000     0.010650000000     0.350550000000     0.032976   
H63      H      0.046810000000     0.971120000000     0.350590000000     0.0329526  
H64      H      0.046630000000     0.970080000000     0.271290000000     0.0470874  
H65      H      0.045700000000     0.711840000000     0.466390000000     0.0459834  
H66      H      0.045970000000     0.632390000000     0.467320000000     0.035077   
H67      H      0.905210000000     0.632360000000     0.512140000000     0.0350648  
H68      H      0.905470000000     0.711810000000     0.513090000000     0.0459877  
H69      H      0.904960000000     0.773760000000     0.467770000000     0.0479988  
H70      H      0.904700000000     0.853200000000     0.468700000000     0.0325641  
H71      H      0.046440000000     0.853230000000     0.510690000000     0.0325719  
H72      H      0.046190000000     0.773790000000     0.511690000000     0.0480061  
H73      H      0.046210000000     0.208130000000     0.467580000000     0.0479999  
H74      H      0.046460000000     0.128690000000     0.468580000000     0.032544   
H75      H      0.904710000000     0.128700000000     0.510530000000     0.0325713  
H76      H      0.904960000000     0.208140000000     0.511460000000     0.0479957  
H77      H      0.905480000000     0.270090000000     0.466150000000     0.0459626  
H78      H      0.905230000000     0.349540000000     0.467110000000     0.0350854  
H79      H      0.045960000000     0.349530000000     0.511960000000     0.0350724  
H80      H      0.045700000000     0.270080000000     0.512890000000     0.0459758  
H81      H      0.905590000000     0.514570000000     0.770120000000     0.0467815  
H82      H      0.905320000000     0.513720000000     0.849350000000     0.0346004  
H83      H      0.045780000000     0.467730000000     0.849350000000     0.0345925  
H84      H      0.045510000000     0.466870000000     0.770130000000     0.046795   
H85      H      0.045520000000     0.514610000000     0.709170000000     0.0467618  
H86      H      0.045800000000     0.513830000000     0.629940000000     0.0346456  
H87      H      0.905340000000     0.467820000000     0.629890000000     0.0346346  
H88      H      0.905600000000     0.466890000000     0.709120000000     0.0467527  
H89      H      0.045560000000     0.514910000000     0.209110000000     0.0467728  
H90      H      0.045820000000     0.513980000000     0.129890000000     0.0346224  
H91      H      0.905360000000     0.467970000000     0.129940000000     0.0346231  
H92      H      0.905640000000     0.467180000000     0.209170000000     0.0467814  
H93      H      0.905650000000     0.514920000000     0.270130000000     0.0467595  
H94      H      0.905380000000     0.514060000000     0.349360000000     0.0346211  
H95      H      0.045850000000     0.468080000000     0.349340000000     0.034626   
H96      H      0.045570000000     0.467230000000     0.270120000000     0.0467827  
H97      H      0.045700000000     0.711700000000     0.966140000000     0.0459439  
H98      H      0.045940000000     0.632250000000     0.967100000000     0.0350739  
H99      H      0.905210000000     0.632270000000     0.011960000000     0.0350913  
H100     H      0.905480000000     0.711720000000     0.012890000000     0.0459587  
H101     H      0.904980000000     0.773670000000     0.967580000000     0.0479908  
H102     H      0.904740000000     0.853110000000     0.968580000000     0.0325466  
H103     H      0.046500000000     0.853090000000     0.010520000000     0.032563   
H104     H      0.046230000000     0.773640000000     0.011460000000     0.0479999  
H105     H      0.046230000000     0.208050000000     0.967770000000     0.0479728  
H106     H      0.046500000000     0.128600000000     0.968700000000     0.0325658  
H107     H      0.904760000000     0.128550000000     0.010700000000     0.0325854  
H108     H      0.905000000000     0.207990000000     0.011700000000     0.0479976  
H109     H      0.905480000000     0.269950000000     0.966400000000     0.0459694  
H110     H      0.905200000000     0.349400000000     0.967330000000     0.0350742  
H111     H      0.045960000000     0.349440000000     0.012140000000     0.0350918  
H112     H      0.045720000000     0.269990000000     0.013090000000     0.0459851  
O1       O      0.013990000000     0.492040000000     0.055390000000    -0.389579   
O2       O      0.013970000000     0.489640000000     0.923870000000    -0.38955    
O3       O      0.013960000000     0.557030000000     0.988420000000    -0.386469   
O4       O      0.013970000000     0.424650000000     0.990830000000    -0.386429   
O5       O      0.937180000000     0.424640000000     0.988550000000    -0.38651    
O6       O      0.937180000000     0.557030000000     0.990730000000    -0.38657    
O7       O      0.937160000000     0.491920000000     0.923880000000    -0.389725   
O8       O      0.937180000000     0.489750000000     0.055400000000    -0.389796   
O9       O      0.013990000000     0.492050000000     0.555400000000    -0.389586   
O10      O      0.014010000000     0.489870000000     0.423880000000    -0.389531   
O11      O      0.013980000000     0.557160000000     0.488540000000    -0.386451   
O12      O      0.013980000000     0.424770000000     0.490730000000    -0.386438   
O13      O      0.937200000000     0.424760000000     0.488430000000    -0.38656    
O14      O      0.937200000000     0.557150000000     0.490830000000    -0.386565   
O15      O      0.937190000000     0.492150000000     0.423870000000    -0.389568   
O16      O      0.937170000000     0.489750000000     0.555390000000    -0.389663   
O17      O      0.937700000000     0.928270000000     0.987700000000    -0.465835   
O18      O      0.937700000000     0.053400000000     0.991550000000    -0.465759   
O19      O      0.937700000000     0.992580000000     0.926580000000    -0.455395   
O20      O      0.937710000000     0.989100000000     0.052670000000    -0.455144   
O21      O      0.013570000000     0.992520000000     0.052660000000    -0.455011   
O22      O      0.013550000000     0.989170000000     0.926570000000    -0.455194   
O23      O      0.013560000000     0.053410000000     0.987750000000    -0.465532   
O24      O      0.013560000000     0.928270000000     0.991480000000    -0.465587   
O25      O      0.937650000000     0.928380000000     0.487750000000    -0.465805   
O26      O      0.937660000000     0.053520000000     0.491480000000    -0.465782   
O27      O      0.937670000000     0.992630000000     0.426570000000    -0.455255   
O28      O      0.937660000000     0.989270000000     0.552660000000    -0.455287   
O29      O      0.013510000000     0.992690000000     0.552670000000    -0.455114   
O30      O      0.013530000000     0.989220000000     0.426580000000    -0.455207   
O31      O      0.013510000000     0.053520000000     0.487700000000    -0.465636   
O32      O      0.013510000000     0.928390000000     0.491550000000    -0.46566    
O33      O      0.476240000000     0.954370000000     0.055350000000    -0.38977    
O34      O      0.475020000000     0.954370000000     0.923820000000    -0.389804   
O35      O      0.545320000000     0.954390000000     0.989170000000    -0.386604   
O36      O      0.405940000000     0.954400000000     0.990000000000    -0.386716   
O37      O      0.405940000000     0.027330000000     0.989120000000    -0.386553   
O38      O      0.545330000000     0.027330000000     0.990050000000    -0.386544   
O39      O      0.476310000000     0.027360000000     0.923820000000    -0.389733   
O40      O      0.474960000000     0.027360000000     0.055350000000    -0.38971    
O41      O      0.476260000000     0.954430000000     0.555350000000    -0.389873   
O42      O      0.474910000000     0.954430000000     0.423820000000    -0.3898     
O43      O      0.545270000000     0.954460000000     0.489120000000    -0.386621   
O44      O      0.405890000000     0.954460000000     0.490050000000    -0.386589   
O45      O      0.405900000000     0.027400000000     0.489180000000    -0.386531   
O46      O      0.545280000000     0.027390000000     0.490000000000    -0.386638   
O47      O      0.476200000000     0.027420000000     0.423820000000    -0.389696   
O48      O      0.474980000000     0.027420000000     0.555350000000    -0.389757   


