data_structure

_audit_creation_method RASPA-1.0
_audit_creation_date 2023-5-19
_audit_author_name 'Poobodin Mano'

_cell_length_a    39.4036
_cell_length_b    39.4047
_cell_length_c    39.3942
_cell_angle_alpha 89.9998
_cell_angle_beta  89.9998
_cell_angle_gamma 89.9998
_cell_volume      61166.9

_symmetry_cell_setting          triclinic
_symmetry_space_group_name_Hall 'P 1'
_symmetry_space_group_name_H-M  'P 1'
_symmetry_Int_Tables_number     1

_symmetry_equiv_pos_as_xyz 'x,y,z'

loop_
_atom_site_label
_atom_site_type_symbol
_atom_site_fract_x
_atom_site_fract_y
_atom_site_fract_z
_atom_site_charge
C1       C      0.011690000000     0.080730000000     0.515010000000     0.35697    
C2       C      0.014420000000     0.946010000000     0.510780000000     0.35688    
C3       C      0.080420000000     0.014470000000     0.510400000000     0.357104   
C4       C      0.945730000000     0.012280000000     0.515440000000     0.356745   
C5       C      0.014970000000     0.512290000000     0.446060000000     0.357068   
C6       C      0.009660000000     0.514460000000     0.580750000000     0.357036   
C7       C      0.010160000000     0.446010000000     0.514740000000     0.356891   
C8       C      0.014430000000     0.580730000000     0.512040000000     0.356787   
C9       C      0.511570000000     0.016890000000     0.581400000000     0.356905   
C10      C      0.514350000000     0.010830000000     0.446740000000     0.356848   
C11      C      0.580420000000     0.013440000000     0.515630000000     0.356785   
C12      C      0.445660000000     0.014260000000     0.512460000000     0.356921   
C13      C      0.514760000000     0.011200000000     0.081490000000     0.356978   
C14      C      0.513820000000     0.014640000000     0.946690000000     0.356822   
C15      C      0.513760000000     0.080280000000     0.015640000000     0.357065   
C16      C      0.514870000000     0.945540000000     0.012550000000     0.357211   
C17      C      0.014740000000     0.513460000000     0.080750000000     0.357026   
C18      C      0.011190000000     0.514220000000     0.945980000000     0.357077   
C19      C      0.080320000000     0.515620000000     0.011680000000     0.357141   
C20      C      0.945630000000     0.512090000000     0.014880000000     0.357097   
C21      C      0.511980000000     0.445560000000     0.014570000000     0.356748   
C22      C      0.514030000000     0.580290000000     0.013580000000     0.356919   
C23      C      0.445620000000     0.514070000000     0.013320000000     0.356891   
C24      C      0.580350000000     0.511810000000     0.014850000000     0.356855   
C25      C      0.908160000000     0.511320000000     0.015180000000    -0.107627   
C26      C      0.890610000000     0.484390000000     0.030520000000     0.0258738  
C27      C      0.855120000000     0.484180000000     0.031290000000    -0.0700631  
C28      C      0.836350000000     0.510530000000     0.016030000000     0.0308318  
C29      C      0.854190000000     0.537150000000     0.000180000000    -0.0703224  
C30      C      0.889620000000     0.537730000000     0.000130000000     0.0260403  
C31      C      0.798450000000     0.510360000000     0.016590000000    -0.000621138
C32      C      0.780190000000     0.479620000000     0.015510000000    -0.0366943  
C33      C      0.744710000000     0.479610000000     0.015890000000    -0.0377961  
C34      C      0.726740000000     0.510300000000     0.016570000000    -0.00057774 
C35      C      0.744660000000     0.540990000000     0.017520000000    -0.0378609  
C36      C      0.780100000000     0.541040000000     0.017940000000    -0.0367264  
C37      C      0.689290000000     0.510390000000     0.016040000000     0.0310552  
C38      C      0.670870000000     0.494500000000     0.042050000000    -0.0712334  
C39      C      0.635400000000     0.495280000000     0.041880000000     0.0258725  
C40      C      0.617820000000     0.511230000000     0.015240000000    -0.107826   
C41      C      0.636350000000     0.526670000000     0.988970000000     0.0259673  
C42      C      0.671820000000     0.526610000000     0.989600000000    -0.0712142  
C43      C      0.117780000000     0.516430000000     0.010930000000    -0.10775    
C44      C      0.135670000000     0.543120000000     0.026290000000     0.025917   
C45      C      0.171160000000     0.543180000000     0.026540000000    -0.0700726  
C46      C      0.189590000000     0.516930000000     0.010720000000     0.0307913  
C47      C      0.171420000000     0.490620000000     0.994730000000    -0.0702534  
C48      C      0.135980000000     0.490180000000     0.995200000000     0.0261692  
C49      C      0.227500000000     0.516780000000     0.011100000000    -0.000581747
C50      C      0.245990000000     0.547400000000     0.010510000000    -0.0367146  
C51      C      0.281460000000     0.547150000000     0.011230000000    -0.037788   
C52      C      0.299220000000     0.516330000000     0.011770000000    -0.000542476
C53      C      0.281070000000     0.485750000000     0.012050000000    -0.0378659  
C54      C      0.245610000000     0.485950000000     0.012130000000    -0.0367466  
C55      C      0.336680000000     0.516000000000     0.012050000000     0.0310208  
C56      C      0.354610000000     0.532010000000     0.038320000000    -0.0711452  
C57      C      0.390070000000     0.531060000000     0.038960000000     0.0258586  
C58      C      0.408160000000     0.514780000000     0.012870000000    -0.107868   
C59      C      0.390130000000     0.499180000000     0.986330000000     0.0259289  
C60      C      0.354660000000     0.499430000000     0.986160000000    -0.0711547  
C61      C      0.514450000000     0.617750000000     0.013280000000    -0.107826   
C62      C      0.498890000000     0.635750000000     0.986770000000     0.0258323  
C63      C      0.498830000000     0.671210000000     0.986710000000    -0.0701119  
C64      C      0.515060000000     0.689570000000     0.012750000000     0.0306535  
C65      C      0.531020000000     0.671320000000     0.039050000000    -0.0701995  
C66      C      0.530350000000     0.635860000000     0.039510000000     0.02577    
C67      C      0.515280000000     0.727470000000     0.012530000000    -0.000709728
C68      C      0.515850000000     0.745610000000     0.981690000000    -0.036667   
C69      C      0.515540000000     0.781070000000     0.981510000000    -0.0378447  
C70      C      0.515470000000     0.799180000000     0.012120000000    -0.000691468
C71      C      0.515330000000     0.781410000000     0.042930000000    -0.0378031  
C72      C      0.514840000000     0.745950000000     0.043170000000    -0.0367657  
C73      C      0.515460000000     0.836610000000     0.011940000000     0.0312319  
C74      C      0.488570000000     0.854490000000     0.996930000000    -0.071301   
C75      C      0.488210000000     0.889960000000     0.997390000000     0.0264008  
C76      C      0.515170000000     0.908080000000     0.012110000000    -0.108002   
C77      C      0.542330000000     0.890100000000     0.026660000000     0.0262753  
C78      C      0.542250000000     0.854630000000     0.026940000000    -0.0713843  
C79      C      0.511730000000     0.408090000000     0.014810000000    -0.107731   
C80      C      0.527820000000     0.389810000000     0.988830000000     0.0258365  
C81      C      0.528090000000     0.354360000000     0.989280000000    -0.0701285  
C82      C      0.511550000000     0.336280000000     0.015330000000     0.0306227  
C83      C      0.495080000000     0.354800000000     0.041110000000    -0.0701372  
C84      C      0.495530000000     0.390280000000     0.041060000000     0.0256679  
C85      C      0.511550000000     0.298380000000     0.015600000000    -0.00065977 
C86      C      0.511540000000     0.279870000000     0.984980000000    -0.0367768  
C87      C      0.512220000000     0.244420000000     0.985250000000    -0.0377024  
C88      C      0.512090000000     0.226670000000     0.016070000000    -0.000715214
C89      C      0.511580000000     0.244800000000     0.046660000000    -0.0377997  
C90      C      0.511700000000     0.280270000000     0.046470000000    -0.036784   
C91      C      0.512630000000     0.189220000000     0.016260000000     0.031324   
C92      C      0.539570000000     0.171610000000     0.001030000000    -0.071432   
C93      C      0.540200000000     0.136150000000     0.001310000000     0.0262271  
C94      C      0.513460000000     0.117750000000     0.016080000000    -0.107822   
C95      C      0.486340000000     0.135450000000     0.031030000000     0.0262432  
C96      C      0.486150000000     0.170930000000     0.031490000000    -0.0713796  
C97      C      0.510920000000     0.018400000000     0.618840000000    -0.107869   
C98      C      0.526570000000     0.045340000000     0.636210000000     0.0260326  
C99      C      0.526910000000     0.046030000000     0.671710000000    -0.0712029  
C100     C      0.510860000000     0.020260000000     0.690330000000     0.0310931  
C101     C      0.494660000000     0.993690000000     0.673040000000    -0.0712989  
C102     C      0.495040000000     0.992540000000     0.637590000000     0.0262026  
C103     C      0.511340000000     0.020740000000     0.727790000000    -0.000560629
C104     C      0.542250000000     0.019600000000     0.745350000000    -0.0378696  
C105     C      0.542700000000     0.018660000000     0.780810000000    -0.0366394  
C106     C      0.512220000000     0.019620000000     0.799520000000    -0.000723148
C107     C      0.481300000000     0.021460000000     0.781600000000    -0.0367005  
C108     C      0.480880000000     0.021590000000     0.746130000000    -0.0379621  
C109     C      0.512640000000     0.018410000000     0.837420000000     0.0308536  
C110     C      0.539500000000     0.033040000000     0.855950000000    -0.070228   
C111     C      0.540100000000     0.031410000000     0.891400000000     0.0259699  
C112     C      0.513490000000     0.015840000000     0.909230000000    -0.107635   
C113     C      0.486470000000     0.001550000000     0.890960000000     0.0260231  
C114     C      0.486230000000     0.002450000000     0.855500000000    -0.0702909  
C115     C      0.514490000000     0.009330000000     0.409290000000    -0.107822   
C116     C      0.499180000000     0.035340000000     0.390270000000     0.0261862  
C117     C      0.498960000000     0.033950000000     0.354840000000    -0.0714952  
C118     C      0.514760000000     0.006980000000     0.337830000000     0.0311524  
C119     C      0.530410000000     0.981140000000     0.356690000000    -0.0711917  
C120     C      0.529890000000     0.982070000000     0.392190000000     0.0260508  
C121     C      0.514950000000     0.006020000000     0.300400000000    -0.000639576
C122     C      0.484340000000     0.004390000000     0.282390000000    -0.0379139  
C123     C      0.484390000000     0.004260000000     0.246920000000    -0.0367947  
C124     C      0.515080000000     0.006630000000     0.228670000000    -0.000665824
C125     C      0.545740000000     0.008300000000     0.247050000000    -0.0367497  
C126     C      0.545660000000     0.007620000000     0.282540000000    -0.0378709  
C127     C      0.515040000000     0.007730000000     0.190770000000     0.0307653  
C128     C      0.488120000000     0.023140000000     0.172980000000    -0.0702347  
C129     C      0.487890000000     0.023940000000     0.137520000000     0.026051   
C130     C      0.514950000000     0.010100000000     0.118960000000    -0.107706   
C131     C      0.542080000000     0.995100000000     0.136500000000     0.0260187  
C132     C      0.541950000000     0.993570000000     0.171950000000    -0.0701349  
C133     C      0.008350000000     0.514480000000     0.618200000000    -0.107932   
C134     C      0.034220000000     0.498700000000     0.637030000000     0.0261685  
C135     C      0.033000000000     0.498380000000     0.672460000000    -0.0714353  
C136     C      0.006350000000     0.514520000000     0.689670000000     0.0311491  
C137     C      0.980660000000     0.530620000000     0.670990000000    -0.0711703  
C138     C      0.981410000000     0.530230000000     0.635480000000     0.0261062  
C139     C      0.005590000000     0.514620000000     0.727110000000    -0.00057939 
C140     C      0.004360000000     0.483950000000     0.745070000000    -0.0379111  
C141     C      0.004340000000     0.483930000000     0.780540000000    -0.0367354  
C142     C      0.006390000000     0.514610000000     0.798830000000    -0.00063471 
C143     C      0.007670000000     0.545320000000     0.780510000000    -0.0366886  
C144     C      0.006890000000     0.545310000000     0.745030000000    -0.0378541  
C145     C      0.007540000000     0.514520000000     0.836730000000     0.0308942  
C146     C      0.023320000000     0.487780000000     0.854460000000    -0.0702431  
C147     C      0.024170000000     0.487530000000     0.889920000000     0.026203   
C148     C      0.010010000000     0.514390000000     0.908520000000    -0.107794   
C149     C      0.994620000000     0.541330000000     0.891030000000     0.02622    
C150     C      0.993040000000     0.541220000000     0.855580000000    -0.0701916  
C151     C      0.015830000000     0.513280000000     0.118220000000    -0.107728   
C152     C      0.000600000000     0.539540000000     0.136830000000     0.025842   
C153     C      0.001290000000     0.539220000000     0.172290000000    -0.0702443  
C154     C      0.017960000000     0.513020000000     0.190030000000     0.030789   
C155     C      0.033550000000     0.486950000000     0.171170000000    -0.0702035  
C156     C      0.032150000000     0.486890000000     0.135710000000     0.0258333  
C157     C      0.018890000000     0.512840000000     0.227930000000    -0.000654375
C158     C      0.019740000000     0.543490000000     0.246340000000    -0.0366795  
C159     C      0.019550000000     0.543350000000     0.281810000000    -0.0379294  
C160     C      0.019330000000     0.512590000000     0.299670000000    -0.000543932
C161     C      0.019210000000     0.481940000000     0.281620000000    -0.0378312  
C162     C      0.018610000000     0.482030000000     0.246140000000    -0.0367221  
C163     C      0.018450000000     0.512520000000     0.337120000000     0.0311017  
C164     C      0.991620000000     0.528380000000     0.354340000000    -0.0713244  
C165     C      0.990340000000     0.527940000000     0.389770000000     0.0262076  
C166     C      0.016300000000     0.512320000000     0.408600000000    -0.107902   
C167     C      0.043390000000     0.496840000000     0.391320000000     0.0260647  
C168     C      0.044220000000     0.496560000000     0.355820000000    -0.0712003  
C169     C      0.408190000000     0.014440000000     0.511310000000    -0.107635   
C170     C      0.389580000000     0.987820000000     0.525910000000     0.0260552  
C171     C      0.354130000000     0.988070000000     0.525050000000    -0.0702004  
C172     C      0.336410000000     0.014560000000     0.508820000000     0.0307567  
C173     C      0.355280000000     0.041020000000     0.493900000000    -0.0702593  
C174     C      0.390720000000     0.041140000000     0.495490000000     0.0259816  
C175     C      0.298510000000     0.014620000000     0.507630000000    -0.000697993
C176     C      0.280230000000     0.983910000000     0.506050000000    -0.0367554  
C177     C      0.244770000000     0.983930000000     0.506000000000    -0.0378256  
C178     C      0.226800000000     0.014600000000     0.506680000000    -0.000677545
C179     C      0.244720000000     0.045310000000     0.507510000000    -0.0378428  
C180     C      0.280190000000     0.045340000000     0.508360000000    -0.0367465  
C181     C      0.189350000000     0.014510000000     0.507350000000     0.0311418  
C182     C      0.172070000000     0.998450000000     0.534010000000    -0.0714269  
C183     C      0.136640000000     0.998780000000     0.535140000000     0.0262138  
C184     C      0.117880000000     0.014480000000     0.509180000000    -0.107898   
C185     C      0.135230000000     0.030150000000     0.482230000000     0.0260323  
C186     C      0.170730000000     0.030540000000     0.481560000000    -0.0712498  
C187     C      0.908270000000     0.012280000000     0.516710000000    -0.10773    
C188     C      0.889460000000     0.027770000000     0.490650000000     0.0260364  
C189     C      0.854040000000     0.028210000000     0.491900000000    -0.0713487  
C190     C      0.836800000000     0.012470000000     0.518780000000     0.0310791  
C191     C      0.855470000000     0.996630000000     0.544650000000    -0.0711081  
C192     C      0.890970000000     0.996910000000     0.543860000000     0.0259531  
C193     C      0.799340000000     0.012550000000     0.519650000000    -0.000637623
C194     C      0.781480000000     0.043310000000     0.519410000000    -0.0378831  
C195     C      0.746020000000     0.043470000000     0.519660000000    -0.0367613  
C196     C      0.727600000000     0.012800000000     0.519330000000    -0.000713057
C197     C      0.745800000000     0.982000000000     0.519490000000    -0.0367147  
C198     C      0.781280000000     0.981910000000     0.520030000000    -0.0377967  
C199     C      0.689700000000     0.012980000000     0.518490000000     0.030617   
C200     C      0.671930000000     0.038920000000     0.501470000000    -0.0701844  
C201     C      0.636470000000     0.039250000000     0.500890000000     0.0257117  
C202     C      0.617890000000     0.013250000000     0.516600000000    -0.107698   
C203     C      0.635430000000     0.987100000000     0.533270000000     0.0257057  
C204     C      0.670880000000     0.987160000000     0.534550000000    -0.0701273  
C205     C      0.015410000000     0.908570000000     0.509700000000    -0.107874   
C206     C      0.000140000000     0.890780000000     0.482810000000     0.0259408  
C207     C      0.000390000000     0.855290000000     0.482350000000    -0.0713208  
C208     C      0.016660000000     0.837080000000     0.508300000000     0.0311712  
C209     C      0.032450000000     0.854800000000     0.534840000000    -0.0714805  
C210     C      0.031480000000     0.890240000000     0.535750000000     0.0261037  
C211     C      0.016700000000     0.799610000000     0.508020000000    -0.000679329
C212     C      0.985980000000     0.781700000000     0.508060000000    -0.0378065  
C213     C      0.985910000000     0.746250000000     0.508740000000    -0.0367141  
C214     C      0.016610000000     0.727880000000     0.508580000000    -0.000692744
C215     C      0.047370000000     0.746130000000     0.508100000000    -0.0367728  
C216     C      0.047390000000     0.781610000000     0.508210000000    -0.0378419  
C217     C      0.016460000000     0.689970000000     0.509060000000     0.0306915  
C218     C      0.990240000000     0.671650000000     0.493110000000    -0.070272   
C219     C      0.989520000000     0.636230000000     0.494340000000     0.0260354  
C220     C      0.015420000000     0.618170000000     0.510810000000    -0.107697   
C221     C      0.042010000000     0.636190000000     0.526190000000     0.025813   
C222     C      0.042330000000     0.671680000000     0.525680000000    -0.0700507  
C223     C      0.010420000000     0.118170000000     0.515980000000    -0.107735   
C224     C      0.993970000000     0.136200000000     0.490040000000     0.0260831  
C225     C      0.992700000000     0.171610000000     0.490730000000    -0.0703225  
C226     C      0.008590000000     0.189970000000     0.516970000000     0.0306959  
C227     C      0.025170000000     0.171720000000     0.542890000000    -0.0700548  
C228     C      0.025720000000     0.136220000000     0.542600000000     0.0257861  
C229     C      0.008060000000     0.227880000000     0.517100000000    -0.000659912
C230     C      0.008250000000     0.246230000000     0.486370000000    -0.0367943  
C231     C      0.007530000000     0.281680000000     0.486430000000    -0.0378338  
C232     C      0.007430000000     0.299610000000     0.517140000000    -0.000603018
C233     C      0.007580000000     0.281630000000     0.547840000000    -0.037854   
C234     C      0.007500000000     0.246150000000     0.547850000000    -0.0367475  
C235     C      0.007690000000     0.337080000000     0.517070000000     0.0310655  
C236     C      0.981780000000     0.355270000000     0.500730000000    -0.0711713  
C237     C      0.982240000000     0.390760000000     0.500450000000     0.0260672  
C238     C      0.009080000000     0.408570000000     0.515760000000    -0.107916   
C239     C      0.035100000000     0.390260000000     0.531910000000     0.0260473  
C240     C      0.034190000000     0.354820000000     0.532900000000    -0.0713996  
Cu1      Cu     0.014380000000     0.012300000000     0.544330000000     0.838963   
Cu2      Cu     0.011780000000     0.014450000000     0.481490000000     0.839485   
Cu3      Cu     0.043720000000     0.512290000000     0.514770000000     0.839204   
Cu4      Cu     0.980900000000     0.514450000000     0.512040000000     0.839848   
Cu5      Cu     0.512820000000     0.982440000000     0.515590000000     0.839051   
Cu6      Cu     0.513250000000     0.045270000000     0.512550000000     0.839397   
Cu7      Cu     0.545770000000     0.013170000000     0.013880000000     0.839118   
Cu8      Cu     0.482850000000     0.012650000000     0.014300000000     0.839926   
Cu9      Cu     0.013900000000     0.482400000000     0.013170000000     0.8393     
Cu10     Cu     0.012050000000     0.545290000000     0.013560000000     0.839834   
Cu11     Cu     0.512640000000     0.513160000000     0.045530000000     0.83861    
Cu12     Cu     0.513340000000     0.512700000000     0.982650000000     0.839932   
H1       H      0.904320000000     0.463820000000     0.042560000000     0.0330014  
H2       H      0.842510000000     0.463560000000     0.044330000000     0.0467602  
H3       H      0.840880000000     0.557480000000     0.987360000000     0.046619   
H4       H      0.902510000000     0.558620000000     0.987740000000     0.0327064  
H5       H      0.793190000000     0.455490000000     0.013790000000     0.0378738  
H6       H      0.731260000000     0.455640000000     0.014920000000     0.039316   
H7       H      0.731190000000     0.564950000000     0.018390000000     0.0392738  
H8       H      0.793010000000     0.565220000000     0.019660000000     0.0377112  
H9       H      0.683960000000     0.481940000000     0.062720000000     0.0482437  
H10      H      0.621730000000     0.483040000000     0.062350000000     0.0332115  
H11      H      0.623450000000     0.539270000000     0.968210000000     0.0332559  
H12      H      0.685630000000     0.538950000000     0.969270000000     0.048276   
H13      H      0.122240000000     0.563540000000     0.038870000000     0.0331166  
H14      H      0.184030000000     0.563550000000     0.039720000000     0.0468009  
H15      H      0.184470000000     0.470380000000     0.981510000000     0.0465613  
H16      H      0.122800000000     0.469460000000     0.982810000000     0.03253    
H17      H      0.233180000000     0.571650000000     0.009020000000     0.0378513  
H18      H      0.295080000000     0.571040000000     0.010740000000     0.0392578  
H19      H      0.294350000000     0.461690000000     0.012800000000     0.0392507  
H20      H      0.232520000000     0.461850000000     0.013440000000     0.0377447  
H21      H      0.341140000000     0.544830000000     0.058590000000     0.0482079  
H22      H      0.403340000000     0.543420000000     0.059620000000     0.0332797  
H23      H      0.403430000000     0.486340000000     0.965980000000     0.0332681  
H24      H      0.341240000000     0.487000000000     0.965620000000     0.0481713  
H25      H      0.486140000000     0.622410000000     0.966380000000     0.0331139  
H26      H      0.485580000000     0.684130000000     0.966400000000     0.0466203  
H27      H      0.544460000000     0.684300000000     0.059180000000     0.046639   
H28      H      0.542850000000     0.622590000000     0.060100000000     0.03304    
H29      H      0.516970000000     0.732520000000     0.957560000000     0.0377141  
H30      H      0.515920000000     0.794400000000     0.957460000000     0.0393317  
H31      H      0.514990000000     0.795010000000     0.066840000000     0.0393762  
H32      H      0.513620000000     0.733150000000     0.067440000000     0.0377854  
H33      H      0.467630000000     0.840970000000     0.985300000000     0.048186   
H34      H      0.467040000000     0.903200000000     0.985870000000     0.0325303  
H35      H      0.563340000000     0.903450000000     0.038330000000     0.0326066  
H36      H      0.563250000000     0.841230000000     0.038590000000     0.0481621  
H37      H      0.540830000000     0.402930000000     0.968460000000     0.0331929  
H38      H      0.541740000000     0.341230000000     0.969380000000     0.0466592  
H39      H      0.481420000000     0.342010000000     0.061220000000     0.0466089  
H40      H      0.482640000000     0.403760000000     0.061260000000     0.0330753  
H41      H      0.510630000000     0.292650000000     0.960690000000     0.0377969  
H42      H      0.512310000000     0.230810000000     0.961340000000     0.0393063  
H43      H      0.511740000000     0.231490000000     0.070730000000     0.0392477  
H44      H      0.512440000000     0.293390000000     0.070590000000     0.0377543  
H45      H      0.560280000000     0.185330000000     0.989230000000     0.0481963  
H46      H      0.561330000000     0.123140000000     0.989460000000     0.0327026  
H47      H      0.465480000000     0.121880000000     0.042720000000     0.0325506  
H48      H      0.465100000000     0.184110000000     0.043290000000     0.0481214  
H49      H      0.539140000000     0.065510000000     0.622370000000     0.0330909  
H50      H      0.539500000000     0.066770000000     0.684650000000     0.0482808  
H51      H      0.482230000000     0.973520000000     0.687000000000     0.0480863  
H52      H      0.482660000000     0.971560000000     0.624850000000     0.0325795  
H53      H      0.566030000000     0.018600000000     0.731570000000     0.0393524  
H54      H      0.567010000000     0.016520000000     0.793430000000     0.0377503  
H55      H      0.457310000000     0.023070000000     0.794880000000     0.0377359  
H56      H      0.456760000000     0.022720000000     0.732980000000     0.039295   
H57      H      0.559960000000     0.046210000000     0.843210000000     0.0465565  
H58      H      0.561100000000     0.042950000000     0.904880000000     0.0325013  
H59      H      0.465760000000     0.989080000000     0.904070000000     0.0325825  
H60      H      0.465480000000     0.990160000000     0.842350000000     0.0465783  
H61      H      0.486960000000     0.056550000000     0.402800000000     0.0326694  
H62      H      0.486840000000     0.054160000000     0.340680000000     0.0482127  
H63      H      0.542690000000     0.960100000000     0.343940000000     0.0483342  
H64      H      0.541990000000     0.961770000000     0.406250000000     0.0329981  
H65      H      0.460380000000     0.002910000000     0.295800000000     0.0394284  
H66      H      0.460310000000     0.002080000000     0.233910000000     0.0378127  
H67      H      0.569860000000     0.010820000000     0.234160000000     0.0377527  
H68      H      0.569550000000     0.009200000000     0.296070000000     0.0393517  
H69      H      0.467310000000     0.035090000000     0.186340000000     0.0465357  
H70      H      0.466790000000     0.035980000000     0.124630000000     0.0325552  
H71      H      0.563120000000     0.983920000000     0.122780000000     0.0324917  
H72      H      0.562820000000     0.980840000000     0.184490000000     0.0465068  
H73      H      0.055180000000     0.486220000000     0.624360000000     0.0325956  
H74      H      0.053110000000     0.485910000000     0.686480000000     0.0480881  
H75      H      0.959860000000     0.543160000000     0.683880000000     0.0483227  
H76      H      0.961230000000     0.542680000000     0.621580000000     0.0330041  
H77      H      0.003090000000     0.460000000000     0.731630000000     0.0392918  
H78      H      0.002470000000     0.459800000000     0.793520000000     0.0377858  
H79      H      0.009960000000     0.569440000000     0.793440000000     0.0378077  
H80      H      0.008160000000     0.569240000000     0.731550000000     0.0393562  
H81      H      0.035520000000     0.467140000000     0.841050000000     0.0465653  
H82      H      0.036510000000     0.466580000000     0.902770000000     0.0325062  
H83      H      0.983180000000     0.562220000000     0.904790000000     0.0324972  
H84      H      0.980020000000     0.561930000000     0.843080000000     0.0466193  
H85      H      0.987540000000     0.560050000000     0.123990000000     0.0331954  
H86      H      0.988270000000     0.559340000000     0.185710000000     0.0467506  
H87      H      0.047260000000     0.466700000000     0.183670000000     0.0467016  
H88      H      0.044420000000     0.466480000000     0.121960000000     0.0331371  
H89      H      0.020810000000     0.567730000000     0.233460000000     0.0377627  
H90      H      0.019910000000     0.567280000000     0.295330000000     0.039337   
H91      H      0.018730000000     0.457920000000     0.295000000000     0.0391621  
H92      H      0.017270000000     0.457900000000     0.233100000000     0.0377277  
H93      H      0.971430000000     0.540730000000     0.340330000000     0.0480577  
H94      H      0.969250000000     0.540220000000     0.402430000000     0.032657   
H95      H      0.063660000000     0.484510000000     0.405230000000     0.0330081  
H96      H      0.065170000000     0.484250000000     0.342940000000     0.048202   
H97      H      0.402420000000     0.967070000000     0.538580000000     0.0325013  
H98      H      0.340710000000     0.967640000000     0.537570000000     0.0465012  
H99      H      0.342790000000     0.061510000000     0.480540000000     0.0465257  
H100     H      0.404470000000     0.061830000000     0.483710000000     0.0324721  
H101     H      0.293210000000     0.959750000000     0.504610000000     0.0377425  
H102     H      0.231340000000     0.959950000000     0.505100000000     0.039199   
H103     H      0.231240000000     0.069260000000     0.508350000000     0.0392806  
H104     H      0.293110000000     0.069500000000     0.510260000000     0.0377651  
H105     H      0.186020000000     0.986040000000     0.554200000000     0.0480271  
H106     H      0.123920000000     0.986350000000     0.556110000000     0.0325807  
H107     H      0.121370000000     0.042550000000     0.461970000000     0.0329703  
H108     H      0.183660000000     0.043020000000     0.460750000000     0.0482329  
H109     H      0.902140000000     0.039970000000     0.469520000000     0.0326635  
H110     H      0.840050000000     0.040460000000     0.471630000000     0.0479586  
H111     H      0.842590000000     0.984410000000     0.565650000000     0.048137   
H112     H      0.904850000000     0.984680000000     0.564200000000     0.0330585  
H113     H      0.795000000000     0.067250000000     0.519390000000     0.0392553  
H114     H      0.733140000000     0.067720000000     0.520370000000     0.0377365  
H115     H      0.732770000000     0.957840000000     0.518560000000     0.0376794  
H116     H      0.794650000000     0.957880000000     0.519910000000     0.0391016  
H117     H      0.685300000000     0.058840000000     0.488090000000     0.0466046  
H118     H      0.623600000000     0.059560000000     0.487550000000     0.0331433  
H119     H      0.621710000000     0.966900000000     0.545910000000     0.033142   
H120     H      0.683420000000     0.967120000000     0.548540000000     0.0466055  
H121     H      0.987470000000     0.904270000000     0.462480000000     0.0331263  
H122     H      0.988120000000     0.842040000000     0.461620000000     0.0482007  
H123     H      0.045010000000     0.841190000000     0.555160000000     0.0479689  
H124     H      0.043610000000     0.903320000000     0.556680000000     0.0325272  
H125     H      0.962010000000     0.795170000000     0.508290000000     0.0391284  
H126     H      0.961680000000     0.733370000000     0.509930000000     0.0376472  
H127     H      0.071540000000     0.733110000000     0.507250000000     0.0377674  
H128     H      0.071390000000     0.795030000000     0.507970000000     0.0391164  
H129     H      0.970300000000     0.684550000000     0.479300000000     0.0464483  
H130     H      0.968910000000     0.622950000000     0.481890000000     0.0324926  
H131     H      0.062180000000     0.622870000000     0.539300000000     0.0329366  
H132     H      0.062620000000     0.684680000000     0.538860000000     0.0466407  
H133     H      0.981580000000     0.122890000000     0.469410000000     0.0324828  
H134     H      0.978920000000     0.184490000000     0.470760000000     0.0464676  
H135     H      0.038300000000     0.184740000000     0.563200000000     0.046633   
H136     H      0.038820000000     0.122930000000     0.562790000000     0.0329191  
H137     H      0.009490000000     0.233330000000     0.462150000000     0.0376351  
H138     H      0.007790000000     0.295140000000     0.462440000000     0.0391016  
H139     H      0.007290000000     0.295070000000     0.571840000000     0.0391083  
H140     H      0.006630000000     0.233140000000     0.572040000000     0.0377361  
H141     H      0.961080000000     0.342000000000     0.488420000000     0.0481391  
H142     H      0.961930000000     0.404240000000     0.487720000000     0.0330786  
H143     H      0.055990000000     0.403350000000     0.544070000000     0.0325587  
H144     H      0.054480000000     0.341220000000     0.545520000000     0.0479565  
O1       O      0.013510000000     0.063940000000     0.542860000000    -0.38511    
O2       O      0.015420000000     0.961050000000     0.539620000000    -0.386951   
O3       O      0.065570000000     0.013090000000     0.539320000000    -0.387387   
O4       O      0.962760000000     0.011280000000     0.543190000000    -0.385225   
O5       O      0.960570000000     0.013640000000     0.486510000000    -0.387141   
O6       O      0.063410000000     0.015490000000     0.482650000000    -0.385388   
O7       O      0.012650000000     0.962840000000     0.482950000000    -0.385419   
O8       O      0.010700000000     0.065660000000     0.486190000000    -0.387427   
O9       O      0.042680000000     0.511280000000     0.463130000000    -0.385368   
O10      O      0.038610000000     0.513070000000     0.565960000000    -0.387345   
O11      O      0.038990000000     0.461050000000     0.515790000000    -0.387088   
O12      O      0.042260000000     0.563920000000     0.513900000000    -0.385135   
O13      O      0.985610000000     0.565660000000     0.510990000000    -0.387258   
O14      O      0.982340000000     0.462840000000     0.512910000000    -0.385409   
O15      O      0.981950000000     0.515480000000     0.563680000000    -0.385357   
O16      O      0.986020000000     0.513660000000     0.460840000000    -0.387368   
O17      O      0.510800000000     0.987850000000     0.566740000000    -0.386986   
O18      O      0.514830000000     0.983190000000     0.463960000000    -0.385048   
O19      O      0.564260000000     0.985250000000     0.517520000000    -0.386191   
O20      O      0.461410000000     0.985810000000     0.513780000000    -0.386205   
O21      O      0.461780000000     0.042530000000     0.511990000000    -0.386288   
O22      O      0.564690000000     0.041810000000     0.512960000000    -0.3863     
O23      O      0.513390000000     0.039870000000     0.461370000000    -0.387266   
O24      O      0.513030000000     0.044500000000     0.564200000000    -0.385371   
O25      O      0.543040000000     0.011650000000     0.065370000000    -0.386038   
O26      O      0.542310000000     0.014650000000     0.962440000000    -0.386054   
O27      O      0.542260000000     0.064580000000     0.014900000000    -0.386405   
O28      O      0.543110000000     0.961710000000     0.012910000000    -0.386415   
O29      O      0.486360000000     0.961250000000     0.012850000000    -0.38636    
O30      O      0.485510000000     0.064110000000     0.015710000000    -0.386307   
O31      O      0.485560000000     0.013740000000     0.962830000000    -0.386267   
O32      O      0.486290000000     0.011620000000     0.065720000000    -0.386498   
O33      O      0.016030000000     0.485230000000     0.064610000000    -0.386392   
O34      O      0.012020000000     0.485770000000     0.961760000000    -0.386374   
O35      O      0.065120000000     0.486860000000     0.011010000000    -0.387212   
O36      O      0.962320000000     0.484130000000     0.015320000000    -0.385222   
O37      O      0.960810000000     0.540840000000     0.013860000000    -0.387529   
O38      O      0.063660000000     0.543550000000     0.013160000000    -0.385554   
O39      O      0.011280000000     0.542520000000     0.962080000000    -0.386198   
O40      O      0.012560000000     0.541870000000     0.065000000000    -0.386427   
O41      O      0.510280000000     0.461730000000     0.042780000000    -0.385991   
O42      O      0.515090000000     0.564540000000     0.042050000000    -0.386145   
O43      O      0.461270000000     0.515570000000     0.041820000000    -0.386161   
O44      O      0.564080000000     0.510700000000     0.043020000000    -0.386095   
O45      O      0.564740000000     0.513480000000     0.986330000000    -0.38636    
O46      O      0.461860000000     0.511970000000     0.985180000000    -0.386268   
O47      O      0.512520000000     0.564150000000     0.985350000000    -0.386436   
O48      O      0.514100000000     0.461290000000     0.986150000000    -0.386394   


