data_structure

_audit_creation_method RASPA-1.0
_audit_creation_date 2023-6-4
_audit_author_name 'Poobodin Mano'

_cell_length_a    26.9199
_cell_length_b    27.3659
_cell_length_c    39.001
_cell_angle_alpha 89.9988
_cell_angle_beta  89.9988
_cell_angle_gamma 93.4943
_cell_volume      28678.1

_symmetry_cell_setting          triclinic
_symmetry_space_group_name_Hall 'P 1'
_symmetry_space_group_name_H-M  'P 1'
_symmetry_Int_Tables_number     1

_symmetry_equiv_pos_as_xyz 'x,y,z'

loop_
_atom_site_label
_atom_site_type_symbol
_atom_site_fract_x
_atom_site_fract_y
_atom_site_fract_z
_atom_site_charge
C1       C      0.084500000000     0.941490000000     0.018540000000     0.3499     
C2       C      0.948770000000     0.076460000000     0.018560000000     0.350197   
C3       C      0.088300000000     0.078500000000     0.012330000000     0.363758   
C4       C      0.945420000000     0.938990000000     0.024710000000     0.363685   
C5       C      0.082770000000     0.939580000000     0.516350000000     0.350064   
C6       C      0.949450000000     0.076830000000     0.516590000000     0.35041    
C7       C      0.088600000000     0.076900000000     0.522970000000     0.363609   
C8       C      0.943250000000     0.940050000000     0.509650000000     0.36378    
C9       C      0.521320000000     0.513810000000     0.954770000000     0.425347   
C10      C      0.511630000000     0.504170000000     0.085280000000     0.425455   
C11      C      0.582000000000     0.444140000000     0.019900000000     0.415695   
C12      C      0.451400000000     0.573520000000     0.019940000000     0.41436    
C13      C      0.511590000000     0.503790000000     0.454770000000     0.426668   
C14      C      0.521400000000     0.514270000000     0.585300000000     0.425703   
C15      C      0.582590000000     0.444560000000     0.519990000000     0.415419   
C16      C      0.450390000000     0.572390000000     0.519630000000     0.414439   
C17      C      0.522980000000     0.516360000000     0.916820000000    -0.132781   
C18      C      0.491060000000     0.485060000000     0.897060000000     0.0377537  
C19      C      0.491940000000     0.487640000000     0.861310000000    -0.0773729  
C20      C      0.524760000000     0.521530000000     0.844390000000     0.0354144  
C21      C      0.557000000000     0.552600000000     0.864100000000    -0.0771484  
C22      C      0.556060000000     0.550110000000     0.899950000000     0.0374606  
C23      C      0.525080000000     0.524210000000     0.806310000000    -0.00217426 
C24      C      0.480100000000     0.520710000000     0.787920000000    -0.036898   
C25      C      0.480150000000     0.520950000000     0.752130000000    -0.0370028  
C26      C      0.525170000000     0.524660000000     0.733780000000    -0.00209158 
C27      C      0.570180000000     0.529360000000     0.752120000000    -0.0369221  
C28      C      0.570140000000     0.529150000000     0.788010000000    -0.036761   
C29      C      0.524920000000     0.522130000000     0.695680000000     0.0354326  
C30      C      0.491940000000     0.488450000000     0.678740000000    -0.0775696  
C31      C      0.491060000000     0.485920000000     0.643020000000     0.0380098  
C32      C      0.523190000000     0.517010000000     0.623230000000    -0.133108   
C33      C      0.556490000000     0.550540000000     0.640110000000     0.037477   
C34      C      0.557390000000     0.553020000000     0.675980000000    -0.0770661  
C35      C      0.508950000000     0.501900000000     0.416830000000    -0.133402   
C36      C      0.540840000000     0.533230000000     0.397050000000     0.0382403  
C37      C      0.538310000000     0.532360000000     0.361320000000    -0.0776608  
C38      C      0.503810000000     0.500180000000     0.344380000000     0.0354907  
C39      C      0.472170000000     0.468470000000     0.364080000000    -0.077166   
C40      C      0.474660000000     0.469360000000     0.399950000000     0.0376391  
C41      C      0.501200000000     0.500020000000     0.306280000000    -0.00212751 
C42      C      0.505350000000     0.544330000000     0.287970000000    -0.0369847  
C43      C      0.505500000000     0.544440000000     0.252180000000    -0.0368726  
C44      C      0.501450000000     0.500240000000     0.233750000000    -0.0021696  
C45      C      0.496050000000     0.455910000000     0.252000000000    -0.036832   
C46      C      0.495940000000     0.455800000000     0.287900000000    -0.0369158  
C47      C      0.504070000000     0.500610000000     0.195670000000     0.0354264  
C48      C      0.538800000000     0.532590000000     0.178740000000    -0.0774552  
C49      C      0.541320000000     0.533510000000     0.142990000000     0.0378675  
C50      C      0.509120000000     0.502490000000     0.123220000000    -0.133045   
C51      C      0.474520000000     0.470270000000     0.140110000000     0.0375093  
C52      C      0.472100000000     0.469270000000     0.175960000000    -0.0771742  
C53      C      0.412370000000     0.609750000000     0.519160000000    -0.125356   
C54      C      0.422690000000     0.655510000000     0.503520000000     0.033426   
C55      C      0.386840000000     0.690620000000     0.502740000000    -0.0737114  
C56      C      0.339850000000     0.681580000000     0.518350000000     0.0327566  
C57      C      0.329970000000     0.635700000000     0.534310000000    -0.0736226  
C58      C      0.365450000000     0.600170000000     0.534350000000     0.03342    
C59      C      0.301600000000     0.719640000000     0.517970000000    -0.00167095 
C60      C      0.316020000000     0.770120000000     0.516900000000    -0.0361167  
C61      C      0.280430000000     0.805490000000     0.516090000000    -0.0384111  
C62      C      0.229360000000     0.791650000000     0.517170000000     0.000339007
C63      C      0.214630000000     0.741570000000     0.518680000000    -0.0384419  
C64      C      0.250140000000     0.706080000000     0.518660000000    -0.0361126  
C65      C      0.191610000000     0.829350000000     0.516820000000     0.0286928  
C66      C      0.192140000000     0.865190000000     0.490960000000    -0.0687386  
C67      C      0.156410000000     0.900460000000     0.490490000000     0.0220494  
C68      C      0.120070000000     0.901500000000     0.516390000000    -0.101995   
C69      C      0.119930000000     0.865910000000     0.542460000000     0.022121   
C70      C      0.154880000000     0.829900000000     0.542420000000    -0.0687711  
C71      C      0.602790000000     0.595210000000     0.513210000000    -0.322616   
C72      C      0.638010000000     0.593620000000     0.487050000000     0.120789   
C73      C      0.673470000000     0.632350000000     0.482780000000    -0.117084   
C74      C      0.674200000000     0.672840000000     0.505020000000     0.0662688  
C75      C      0.638880000000     0.673660000000     0.531590000000    -0.116628   
C76      C      0.603170000000     0.635110000000     0.535440000000     0.120342   
C77      C      0.712040000000     0.713760000000     0.500960000000    -0.0146687  
C78      C      0.761420000000     0.704560000000     0.492650000000    -0.0304161  
C79      C      0.797740000000     0.742950000000     0.490970000000    -0.0408099  
C80      C      0.785310000000     0.790920000000     0.497980000000     0.00129246 
C81      C      0.735890000000     0.800440000000     0.505330000000    -0.0410588  
C82      C      0.699430000000     0.762200000000     0.506560000000    -0.0305882  
C83      C      0.824510000000     0.830410000000     0.500030000000     0.0321523  
C84      C      0.858450000000     0.838480000000     0.473060000000    -0.073023   
C85      C      0.896840000000     0.874790000000     0.475920000000     0.0290746  
C86      C      0.902180000000     0.902720000000     0.506050000000    -0.113138   
C87      C      0.868030000000     0.894590000000     0.532940000000     0.0291617  
C88      C      0.829260000000     0.858910000000     0.529840000000    -0.073016   
C89      C      0.912030000000     0.114780000000     0.516760000000    -0.102233   
C90      C      0.911100000000     0.149850000000     0.490410000000     0.0224529  
C91      C      0.876180000000     0.185910000000     0.490860000000    -0.0688596  
C92      C      0.840560000000     0.186970000000     0.517190000000     0.0288977  
C93      C      0.841070000000     0.151580000000     0.543300000000    -0.0689759  
C94      C      0.876760000000     0.116300000000     0.543320000000     0.0224945  
C95      C      0.802940000000     0.224790000000     0.517430000000     0.000351343
C96      C      0.817740000000     0.274800000000     0.515380000000    -0.038379   
C97      C      0.782380000000     0.310410000000     0.516220000000    -0.036016   
C98      C      0.730970000000     0.297010000000     0.518310000000    -0.00173    
C99      C      0.716450000000     0.246590000000     0.519870000000    -0.0360635  
C100     C      0.751930000000     0.211110000000     0.519850000000    -0.0384032  
C101     C      0.692870000000     0.335200000000     0.518890000000     0.0332344  
C102     C      0.701940000000     0.380870000000     0.502490000000    -0.0740648  
C103     C      0.666590000000     0.416490000000     0.503280000000     0.0344638  
C104     C      0.620560000000     0.407190000000     0.519770000000    -0.12612    
C105     C      0.611050000000     0.361650000000     0.535890000000     0.0345761  
C106     C      0.646820000000     0.326460000000     0.535820000000    -0.0740752  
C107     C      0.128550000000     0.115560000000     0.526000000000    -0.112907   
C108     C      0.138920000000     0.147140000000     0.498250000000     0.0290883  
C109     C      0.177380000000     0.183190000000     0.500330000000    -0.0726469  
C110     C      0.206770000000     0.187980000000     0.530020000000     0.0317763  
C111     C      0.196040000000     0.156790000000     0.558020000000    -0.0721766  
C112     C      0.156980000000     0.120950000000     0.556090000000     0.028446   
C113     C      0.248330000000     0.225650000000     0.531380000000     0.00125449 
C114     C      0.277860000000     0.235210000000     0.502150000000    -0.0405378  
C115     C      0.314290000000     0.273420000000     0.502160000000    -0.030977   
C116     C      0.322360000000     0.302170000000     0.531560000000    -0.0151192  
C117     C      0.294560000000     0.291540000000     0.561320000000    -0.0309667  
C118     C      0.257500000000     0.253640000000     0.561180000000    -0.0404504  
C119     C      0.358920000000     0.344060000000     0.530600000000     0.0669475  
C120     C      0.356260000000     0.379260000000     0.504570000000    -0.117309   
C121     C      0.391890000000     0.418190000000     0.502770000000     0.119502   
C122     C      0.430620000000     0.421760000000     0.526570000000    -0.321351   
C123     C      0.433250000000     0.387130000000     0.552730000000     0.120137   
C124     C      0.397230000000     0.348480000000     0.554970000000    -0.117791   
C125     C      0.413670000000     0.611150000000     0.019840000000    -0.125371   
C126     C      0.423590000000     0.656740000000     0.035940000000     0.0343004  
C127     C      0.387860000000     0.692010000000     0.036140000000    -0.074939   
C128     C      0.341850000000     0.683040000000     0.019520000000     0.0335274  
C129     C      0.332120000000     0.637730000000     0.003070000000    -0.0750277  
C130     C      0.367350000000     0.601980000000     0.003590000000     0.034224   
C131     C      0.304160000000     0.720820000000     0.019340000000    -0.00177148 
C132     C      0.288560000000     0.741700000000     0.050110000000    -0.0371778  
C133     C      0.252730000000     0.776870000000     0.050000000000    -0.0373275  
C134     C      0.232240000000     0.793150000000     0.019000000000     0.000171875
C135     C      0.248600000000     0.772320000000     0.988170000000    -0.0372317  
C136     C      0.283550000000     0.736310000000     0.988400000000    -0.0370849  
C137     C      0.194220000000     0.831440000000     0.018830000000     0.0283958  
C138     C      0.193680000000     0.867420000000     0.044750000000    -0.0677663  
C139     C      0.157880000000     0.902620000000     0.044840000000     0.0221035  
C140     C      0.122210000000     0.903800000000     0.018580000000    -0.101879   
C141     C      0.122890000000     0.868510000000     0.992440000000     0.0221781  
C142     C      0.157910000000     0.832560000000     0.992760000000    -0.0676603  
C143     C      0.604280000000     0.593980000000     0.026370000000    -0.321951   
C144     C      0.602880000000     0.628040000000     0.052930000000     0.120685   
C145     C      0.641230000000     0.664190000000     0.056480000000    -0.116951   
C146     C      0.681070000000     0.666810000000     0.033100000000     0.0664955  
C147     C      0.681850000000     0.632440000000     0.006290000000    -0.116648   
C148     C      0.643710000000     0.596040000000     0.003150000000     0.120389   
C149     C      0.721160000000     0.705830000000     0.036060000000    -0.0146261  
C150     C      0.709960000000     0.753770000000     0.044830000000    -0.0303491  
C151     C      0.747380000000     0.791210000000     0.045430000000    -0.0408439  
C152     C      0.796300000000     0.781330000000     0.036870000000     0.00136017 
C153     C      0.807880000000     0.733390000000     0.028990000000    -0.0410302  
C154     C      0.770660000000     0.695830000000     0.028850000000    -0.0304646  
C155     C      0.834710000000     0.821470000000     0.034190000000     0.0322393  
C156     C      0.843440000000     0.854170000000     0.061490000000    -0.0730275  
C157     C      0.879730000000     0.892490000000     0.058520000000     0.0290495  
C158     C      0.906980000000     0.898960000000     0.027970000000    -0.112952   
C159     C      0.897750000000     0.866400000000     0.000580000000     0.0291264  
C160     C      0.862110000000     0.827710000000     0.003780000000    -0.0730018  
C161     C      0.911070000000     0.114130000000     0.018600000000    -0.1022     
C162     C      0.879320000000     0.119120000000     0.046900000000     0.0224583  
C163     C      0.843440000000     0.154250000000     0.046770000000    -0.0690333  
C164     C      0.839420000000     0.186050000000     0.018760000000     0.0288034  
C165     C      0.871490000000     0.181600000000     0.990660000000    -0.0690013  
C166     C      0.906470000000     0.145600000000     0.990370000000     0.0225257  
C167     C      0.801860000000     0.223780000000     0.018870000000     0.000218188
C168     C      0.750810000000     0.210010000000     0.019550000000    -0.0385836  
C169     C      0.715350000000     0.245530000000     0.019270000000    -0.0359703  
C170     C      0.729940000000     0.296010000000     0.019220000000    -0.00184306 
C171     C      0.781470000000     0.309400000000     0.018970000000    -0.03596    
C172     C      0.816830000000     0.273790000000     0.018360000000    -0.038554   
C173     C      0.691830000000     0.334270000000     0.019440000000     0.0332529  
C174     C      0.644410000000     0.324640000000     0.034310000000    -0.074015   
C175     C      0.608740000000     0.359960000000     0.034070000000     0.0345872  
C176     C      0.619710000000     0.406510000000     0.019790000000    -0.125995   
C177     C      0.667040000000     0.416680000000     0.005360000000     0.0344878  
C178     C      0.702300000000     0.380960000000     0.004780000000    -0.0740669  
C179     C      0.429850000000     0.422870000000     0.013800000000    -0.322323   
C180     C      0.428380000000     0.383950000000     0.036900000000     0.120522   
C181     C      0.392270000000     0.345700000000     0.033470000000    -0.116632   
C182     C      0.357600000000     0.345820000000     0.006470000000     0.066428   
C183     C      0.359370000000     0.385330000000     0.983360000000    -0.116918   
C184     C      0.395260000000     0.423800000000     0.987190000000     0.120929   
C185     C      0.319390000000     0.305140000000     0.002890000000    -0.014738   
C186     C      0.331370000000     0.256810000000     0.009670000000    -0.030491   
C187     C      0.294550000000     0.218890000000     0.008950000000    -0.0410659  
C188     C      0.245400000000     0.228600000000     0.000930000000     0.00125824 
C189     C      0.233600000000     0.276390000000     0.992760000000    -0.0407921  
C190     C      0.270290000000     0.314490000000     0.993920000000    -0.0302939  
C191     C      0.205900000000     0.189430000000     0.003210000000     0.0321197  
C192     C      0.200340000000     0.161870000000     0.033410000000    -0.0729781  
C193     C      0.161810000000     0.125910000000     0.036420000000     0.029254   
C194     C      0.128740000000     0.116560000000     0.009050000000    -0.113272   
C195     C      0.134730000000     0.143780000000     0.978630000000     0.029119   
C196     C      0.172860000000     0.180350000000     0.975860000000    -0.0730182  
Cu1      Cu     0.013610000000     0.006050000000     0.986880000000     0.838539   
Cu2      Cu     0.019640000000     0.011900000000     0.050180000000     0.838745   
Cu3      Cu     0.019480000000     0.011510000000     0.484800000000     0.840222   
Cu4      Cu     0.012770000000     0.004960000000     0.548030000000     0.837197   
Cu5      Cu     0.552990000000     0.544150000000     0.022160000000     1.16812    
Cu6      Cu     0.480390000000     0.473440000000     0.017890000000     1.16839    
Cu7      Cu     0.552660000000     0.544250000000     0.517450000000     1.17042    
Cu8      Cu     0.480630000000     0.472940000000     0.522650000000     1.16846    
H1       H      0.465210000000     0.458520000000     0.909160000000     0.0314821  
H2       H      0.467170000000     0.462640000000     0.846890000000     0.0484024  
H3       H      0.582440000000     0.579360000000     0.851840000000     0.0485198  
H4       H      0.581150000000     0.574760000000     0.914400000000     0.0315307  
H5       H      0.444720000000     0.517880000000     0.801220000000     0.0376808  
H6       H      0.444790000000     0.518290000000     0.738800000000     0.0378167  
H7       H      0.605510000000     0.531810000000     0.738760000000     0.0380616  
H8       H      0.605440000000     0.531480000000     0.801420000000     0.0378629  
H9       H      0.467050000000     0.463520000000     0.693130000000     0.0482635  
H10      H      0.465110000000     0.459440000000     0.630940000000     0.0314774  
H11      H      0.581690000000     0.575060000000     0.625640000000     0.0313838  
H12      H      0.582970000000     0.579630000000     0.688250000000     0.0485438  
H13      H      0.567920000000     0.558590000000     0.409140000000     0.0316241  
H14      H      0.563840000000     0.556650000000     0.346940000000     0.0484432  
H15      H      0.444920000000     0.443500000000     0.351800000000     0.048293   
H16      H      0.449520000000     0.444780000000     0.414410000000     0.030841   
H17      H      0.508410000000     0.579080000000     0.301330000000     0.0379057  
H18      H      0.508670000000     0.579260000000     0.238900000000     0.037722   
H19      H      0.493310000000     0.421210000000     0.238570000000     0.0377995  
H20      H      0.493140000000     0.421020000000     0.301230000000     0.0378886  
H21      H      0.564510000000     0.556660000000     0.193150000000     0.0484841  
H22      H      0.568540000000     0.558700000000     0.130870000000     0.0314658  
H23      H      0.449160000000     0.445880000000     0.125670000000     0.0314536  
H24      H      0.444660000000     0.444490000000     0.188230000000     0.0484439  
H25      H      0.458300000000     0.663960000000     0.491280000000     0.0321027  
H26      H      0.396050000000     0.724620000000     0.489390000000     0.0472249  
H27      H      0.295050000000     0.627150000000     0.547350000000     0.0472872  
H28      H      0.356420000000     0.565430000000     0.546890000000     0.0320883  
H29      H      0.354890000000     0.782710000000     0.517190000000     0.0371891  
H30      H      0.292900000000     0.843870000000     0.515290000000     0.03904    
H31      H      0.175480000000     0.729800000000     0.519220000000     0.0389464  
H32      H      0.236890000000     0.667960000000     0.518680000000     0.0372467  
H33      H      0.219890000000     0.865540000000     0.470830000000     0.0471573  
H34      H      0.157720000000     0.927410000000     0.470130000000     0.0338412  
H35      H      0.092380000000     0.865540000000     0.562720000000     0.0338693  
H36      H      0.153690000000     0.802860000000     0.562740000000     0.0471731  
H37      H      0.637510000000     0.562640000000     0.469810000000     0.00447622 
H38      H      0.699790000000     0.630870000000     0.461860000000     0.0577573  
H39      H      0.639050000000     0.703840000000     0.549560000000     0.0581105  
H40      H      0.575650000000     0.636260000000     0.555590000000     0.00420032 
H41      H      0.772410000000     0.667580000000     0.488630000000     0.0359779  
H42      H      0.835890000000     0.734930000000     0.485590000000     0.0395824  
H43      H      0.725650000000     0.837420000000     0.510490000000     0.0393149  
H44      H      0.661480000000     0.770530000000     0.512240000000     0.0358798  
H45      H      0.855210000000     0.816730000000     0.449870000000     0.0480786  
H46      H      0.922810000000     0.880350000000     0.454860000000     0.0330603  
H47      H      0.871170000000     0.915870000000     0.556350000000     0.0326413  
H48      H      0.803620000000     0.852810000000     0.551050000000     0.0480253  
H49      H      0.937820000000     0.149840000000     0.469640000000     0.0333871  
H50      H      0.876530000000     0.212610000000     0.470340000000     0.0471884  
H51      H      0.814200000000     0.151630000000     0.563970000000     0.0471538  
H52      H      0.876290000000     0.089740000000     0.563930000000     0.0333903  
H53      H      0.856870000000     0.286440000000     0.513820000000     0.0390708  
H54      H      0.795740000000     0.348500000000     0.515750000000     0.0372924  
H55      H      0.677560000000     0.234130000000     0.520650000000     0.0373075  
H56      H      0.739400000000     0.172780000000     0.521120000000     0.0389622  
H57      H      0.736080000000     0.389160000000     0.488460000000     0.0472836  
H58      H      0.674940000000     0.451040000000     0.490330000000     0.0306762  
H59      H      0.576140000000     0.353450000000     0.549110000000     0.0307458  
H60      H      0.638320000000     0.292620000000     0.549540000000     0.0473345  
H61      H      0.117090000000     0.144280000000     0.474920000000     0.0328857  
H62      H      0.183870000000     0.207530000000     0.478670000000     0.0471073  
H63      H      0.218320000000     0.159490000000     0.581140000000     0.0471909  
H64      H      0.149750000000     0.096880000000     0.577800000000     0.0329486  
H65      H      0.272510000000     0.213450000000     0.479100000000     0.038691   
H66      H      0.336070000000     0.280680000000     0.479150000000     0.0369514  
H67      H      0.300380000000     0.313570000000     0.584220000000     0.0365677  
H68      H      0.235060000000     0.247340000000     0.583980000000     0.0387033  
H69      H      0.326640000000     0.376590000000     0.485730000000     0.0589379  
H70      H      0.389780000000     0.445270000000     0.482700000000     0.00460935 
H71      H      0.463490000000     0.389870000000     0.571010000000     0.00447196 
H72      H      0.399930000000     0.321480000000     0.575090000000     0.0586732  
H73      H      0.458800000000     0.664950000000     0.048780000000     0.0307287  
H74      H      0.396470000000     0.726650000000     0.048910000000     0.0485306  
H75      H      0.296920000000     0.629720000000     0.990180000000     0.0486006  
H76      H      0.358570000000     0.567350000000     0.990850000000     0.0308587  
H77      H      0.303440000000     0.730110000000     0.074390000000     0.038674   
H78      H      0.240740000000     0.790640000000     0.074440000000     0.0376338  
H79      H      0.235080000000     0.784200000000     0.963610000000     0.0376307  
H80      H      0.295240000000     0.721210000000     0.964240000000     0.0386878  
H81      H      0.221320000000     0.869090000000     0.064910000000     0.0456706  
H82      H      0.158750000000     0.929560000000     0.065210000000     0.0334116  
H83      H      0.095630000000     0.868050000000     0.971990000000     0.033326   
H84      H      0.155790000000     0.805230000000     0.972680000000     0.0456053  
H85      H      0.572190000000     0.626320000000     0.070870000000     0.00377065 
H86      H      0.639850000000     0.689750000000     0.077600000000     0.0577503  
H87      H      0.711490000000     0.634020000000     0.987480000000     0.0579533  
H88      H      0.644670000000     0.569510000000     0.982640000000     0.00400557 
H89      H      0.672080000000     0.762740000000     0.050080000000     0.0360125  
H90      H      0.737800000000     0.828180000000     0.051290000000     0.0395211  
H91      H      0.845660000000     0.725120000000     0.022680000000     0.0395264  
H92      H      0.780590000000     0.659060000000     0.022760000000     0.0359593  
H93      H      0.822540000000     0.849780000000     0.085140000000     0.0479973  
H94      H      0.886110000000     0.917240000000     0.079960000000     0.032627   
H95      H      0.918450000000     0.870450000000     0.976830000000     0.0329433  
H96      H      0.855450000000     0.803010000000     0.982320000000     0.0481642  
H97      H      0.881730000000     0.095360000000     0.068980000000     0.0332375  
H98      H      0.819190000000     0.157010000000     0.068770000000     0.0475621  
H99      H      0.869050000000     0.205640000000     0.968740000000     0.0476142  
H100     H      0.930470000000     0.142890000000     0.968240000000     0.0332532  
H101     H      0.738310000000     0.171620000000     0.019690000000     0.0394294  
H102     H      0.676460000000     0.233050000000     0.018610000000     0.0371919  
H103     H      0.794900000000     0.347450000000     0.019750000000     0.037223   
H104     H      0.856050000000     0.285350000000     0.018100000000     0.0394659  
H105     H      0.634680000000     0.290000000000     0.046690000000     0.0471306  
H106     H      0.572770000000     0.351080000000     0.045700000000     0.0302419  
H107     H      0.676540000000     0.452050000000     0.993850000000     0.0304404  
H108     H      0.737520000000     0.390050000000     0.992280000000     0.0472807  
H109     H      0.455350000000     0.383340000000     0.057440000000     0.00392584 
H110     H      0.391270000000     0.316320000000     0.052110000000     0.0578107  
H111     H      0.333530000000     0.386240000000     0.962120000000     0.0577086  
H112     H      0.396560000000     0.454070000000     0.969320000000     0.00369435 
H113     H      0.369110000000     0.248330000000     0.015870000000     0.0359492  
H114     H      0.304330000000     0.182030000000     0.014970000000     0.0393969  
H115     H      0.195670000000     0.284520000000     0.986800000000     0.0394637  
H116     H      0.259810000000     0.351420000000     0.988960000000     0.0359389  
H117     H      0.225300000000     0.168770000000     0.054910000000     0.0479821  
H118     H      0.158140000000     0.105240000000     0.060070000000     0.0326279  
H119     H      0.109570000000     0.137300000000     0.957210000000     0.0324703  
H120     H      0.176740000000     0.201360000000     0.952360000000     0.0478528  
O1       O      0.065160000000     0.954320000000     0.990050000000    -0.380596   
O2       O      0.962690000000     0.058400000000     0.989980000000    -0.380703   
O3       O      0.068720000000     0.059350000000     0.985190000000    -0.3917     
O4       O      0.959270000000     0.953210000000     0.994730000000    -0.391864   
O5       O      0.965000000000     0.958120000000     0.051860000000    -0.391257   
O6       O      0.073810000000     0.064940000000     0.042320000000    -0.39219    
O7       O      0.966980000000     0.062510000000     0.047130000000    -0.3809     
O8       O      0.071680000000     0.960690000000     0.047010000000    -0.38093    
O9       O      0.070700000000     0.959430000000     0.487920000000    -0.38078    
O10      O      0.968070000000     0.063390000000     0.488020000000    -0.380858   
O11      O      0.073810000000     0.063870000000     0.492960000000    -0.394207   
O12      O      0.964150000000     0.958380000000     0.482690000000    -0.39125    
O13      O      0.957060000000     0.953710000000     0.539760000000    -0.391903   
O14      O      0.069260000000     0.057240000000     0.550050000000    -0.38979    
O15      O      0.962520000000     0.057820000000     0.545060000000    -0.381296   
O16      O      0.063200000000     0.952250000000     0.544780000000    -0.381068   
O17      O      0.548530000000     0.543620000000     0.972610000000    -0.463956   
O18      O      0.544510000000     0.532290000000     0.070760000000    -0.46729    
O19      O      0.595960000000     0.489410000000     0.019460000000    -0.455908   
O20      O      0.497350000000     0.586570000000     0.023360000000    -0.455603   
O21      O      0.437620000000     0.528430000000     0.016570000000    -0.455186   
O22      O      0.535860000000     0.430910000000     0.020400000000    -0.456499   
O23      O      0.480870000000     0.477930000000     0.067440000000    -0.464274   
O24      O      0.492240000000     0.481880000000     0.969280000000    -0.467051   
O25      O      0.542010000000     0.534670000000     0.469020000000    -0.467913   
O26      O      0.550840000000     0.541690000000     0.567220000000    -0.464776   
O27      O      0.595990000000     0.489710000000     0.516550000000    -0.456513   
O28      O      0.496350000000     0.585860000000     0.517040000000    -0.456401   
O29      O      0.436890000000     0.527170000000     0.522500000000    -0.454819   
O30      O      0.536750000000     0.431170000000     0.523500000000    -0.457094   
O31      O      0.489960000000     0.484340000000     0.571050000000    -0.467985   
O32      O      0.483500000000     0.475050000000     0.472850000000    -0.464451   


