data_structure

_audit_creation_method RASPA-1.0
_audit_creation_date 2023-5-19
_audit_author_name 'Poobodin Mano'

_cell_length_a    21.4621
_cell_length_b    21.5705
_cell_length_c    21.4821
_cell_angle_alpha 90
_cell_angle_beta  90
_cell_angle_gamma 90
_cell_volume      9945.1

_symmetry_cell_setting          triclinic
_symmetry_space_group_name_Hall 'P 1'
_symmetry_space_group_name_H-M  'P 1'
_symmetry_Int_Tables_number     1

_symmetry_equiv_pos_as_xyz 'x,y,z'

loop_
_atom_site_label
_atom_site_type_symbol
_atom_site_fract_x
_atom_site_fract_y
_atom_site_fract_z
_atom_site_charge
C1       C      0.010210000000     0.132010000000     0.484990000000     0.400516   
C2       C      0.005680000000     0.885940000000     0.483090000000     0.400384   
C3       C      0.130130000000     0.004580000000     0.468850000000     0.399109   
C4       C      0.884600000000     0.010680000000     0.499940000000     0.398513   
C5       C      0.010140000000     0.503750000000     0.373110000000     0.400089   
C6       C      0.979710000000     0.515730000000     0.618260000000     0.399587   
C7       C      0.993510000000     0.385230000000     0.501420000000     0.400197   
C8       C      0.996250000000     0.631140000000     0.491450000000     0.400152   
C9       C      0.488550000000     0.005240000000     0.628220000000     0.39977    
C10      C      0.523480000000     0.003200000000     0.383310000000     0.400836   
C11      C      0.629390000000     0.000860000000     0.521990000000     0.397882   
C12      C      0.383440000000     0.006530000000     0.489180000000     0.398315   
C13      C      0.509320000000     0.982820000000     0.129700000000     0.400637   
C14      C      0.492320000000     0.989010000000     0.883430000000     0.399821   
C15      C      0.499150000000     0.108060000000     0.010830000000     0.398867   
C16      C      0.501940000000     0.861590000000     0.003620000000     0.397722   
C17      C      0.988180000000     0.506360000000     0.872740000000     0.398769   
C18      C      0.005240000000     0.490980000000     0.119130000000     0.399932   
C19      C      0.874500000000     0.496020000000     0.005100000000     0.400895   
C20      C      0.120970000000     0.501250000000     0.985720000000     0.400883   
C21      C      0.375280000000     0.482890000000     0.002400000000     0.399398   
C22      C      0.621620000000     0.484370000000     0.023930000000     0.401738   
C23      C      0.501810000000     0.361420000000     0.024770000000     0.399722   
C24      C      0.495870000000     0.606760000000     0.000730000000     0.398418   
C25      C      0.719430000000     0.519340000000     0.072710000000    -0.0100477  
C26      C      0.717600000000     0.428110000000     0.000010000000    -0.0108363  
C27      C      0.776640000000     0.545140000000     0.038690000000    -0.010173   
C28      C      0.776900000000     0.450910000000     0.968490000000    -0.00992556 
C29      C      0.279310000000     0.440780000000     0.957000000000    -0.0119045  
C30      C      0.276030000000     0.519540000000     0.044220000000    -0.00987648 
C31      C      0.216770000000     0.466010000000     0.933090000000    -0.0110312  
C32      C      0.220230000000     0.550480000000     0.013510000000    -0.0115438  
C33      C      0.550720000000     0.763450000000     0.970500000000    -0.00956048 
C34      C      0.466510000000     0.765480000000     0.052470000000    -0.0114569  
C35      C      0.523510000000     0.702870000000     0.944610000000    -0.0107917  
C36      C      0.442510000000     0.703140000000     0.028950000000    -0.0118654  
C37      C      0.561090000000     0.267350000000     0.001450000000    -0.0114171  
C38      C      0.469960000000     0.263400000000     0.074670000000    -0.0100924  
C39      C      0.541020000000     0.206080000000     0.972060000000    -0.0101174  
C40      C      0.446390000000     0.204520000000     0.042200000000    -0.0104761  
C41      C      0.533970000000     0.031200000000     0.786850000000    -0.00989092 
C42      C      0.455360000000     0.943810000000     0.785990000000    -0.0123614  
C43      C      0.504310000000     0.057630000000     0.728290000000    -0.010058   
C44      C      0.434330000000     0.964600000000     0.720780000000    -0.010551   
C45      C      0.470080000000     0.025050000000     0.227400000000    -0.0102606  
C46      C      0.548190000000     0.937230000000     0.226550000000    -0.0118282  
C47      C      0.503440000000     0.053440000000     0.282990000000    -0.0097875  
C48      C      0.573460000000     0.960100000000     0.289470000000    -0.0102809  
C49      C      0.004460000000     0.572790000000     0.713960000000    -0.00941342 
C50      C      0.923480000000     0.489050000000     0.714650000000    -0.0101772  
C51      C      0.029440000000     0.550440000000     0.776720000000    -0.0120595  
C52      C      0.951990000000     0.461880000000     0.774010000000    -0.0102671  
C53      C      0.982700000000     0.552390000000     0.274110000000    -0.0106246  
C54      C      0.065660000000     0.470040000000     0.277530000000    -0.0108086  
C55      C      0.955340000000     0.523290000000     0.215910000000    -0.0105289  
C56      C      0.038400000000     0.440840000000     0.217760000000    -0.0108754  
C57      C      0.224130000000     0.943800000000     0.489490000000    -0.00915603 
C58      C      0.229080000000     0.036790000000     0.419470000000    -0.0105955  
C59      C      0.283430000000     0.964250000000     0.522520000000    -0.0113483  
C60      C      0.287640000000     0.059530000000     0.453990000000    -0.0107933  
C61      C      0.790850000000     0.060020000000     0.541600000000    -0.0122478  
C62      C      0.783940000000     0.970410000000     0.466180000000    -0.00906198 
C63      C      0.726640000000     0.041660000000     0.568010000000    -0.0115535  
C64      C      0.727400000000     0.945970000000     0.501250000000    -0.0105065  
C65      C      0.947700000000     0.728910000000     0.459520000000    -0.00967039 
C66      C      0.032900000000     0.726430000000     0.540260000000    -0.0110058  
C67      C      0.975050000000     0.788590000000     0.432790000000    -0.0105077  
C68      C      0.055020000000     0.790330000000     0.518610000000    -0.0111108  
C69      C      0.030670000000     0.288680000000     0.550080000000    -0.0109651  
C70      C      0.945410000000     0.286550000000     0.469670000000    -0.0104361  
C71      C      0.057590000000     0.228710000000     0.523080000000    -0.0114723  
C72      C      0.976140000000     0.230660000000     0.438630000000    -0.0112367  
Cu1      Cu     0.015350000000     0.008360000000     0.541140000000     0.842297   
Cu2      Cu     0.999560000000     0.009490000000     0.427330000000     0.839812   
Cu3      Cu     0.052020000000     0.507910000000     0.503570000000     0.839024   
Cu4      Cu     0.938050000000     0.508530000000     0.488110000000     0.845677   
Cu5      Cu     0.505040000000     0.946670000000     0.506020000000     0.84522    
Cu6      Cu     0.507700000000     0.061350000000     0.505500000000     0.840508   
Cu7      Cu     0.557960000000     0.985400000000     0.001930000000     0.840633   
Cu8      Cu     0.443340000000     0.984300000000     0.011290000000     0.84259    
Cu9      Cu     0.998780000000     0.441460000000     0.991380000000     0.837952   
Cu10     Cu     0.996720000000     0.555540000000     0.000290000000     0.84691    
Cu11     Cu     0.504470000000     0.477760000000     0.955920000000     0.84492    
Cu12     Cu     0.492700000000     0.490270000000     0.069910000000     0.844582   
H1       H      0.730020000000     0.393410000000     0.036240000000     0.0383858  
H2       H      0.734370000000     0.491680000000     0.113760000000     0.0408097  
H3       H      0.806220000000     0.569740000000     0.073350000000     0.0383719  
H4       H      0.688230000000     0.404030000000     0.964800000000     0.0394083  
H5       H      0.805520000000     0.409770000000     0.955910000000     0.0411609  
H6       H      0.764350000000     0.475120000000     0.924540000000     0.0400271  
H7       H      0.690580000000     0.558870000000     0.089370000000     0.0381206  
H8       H      0.761680000000     0.579080000000     0.002690000000     0.0423757  
H9       H      0.260090000000     0.486940000000     0.081050000000     0.0426806  
H10      H      0.270440000000     0.397930000000     0.984380000000     0.0389983  
H11      H      0.187950000000     0.426260000000     0.917010000000     0.0418894  
H12      H      0.304520000000     0.556580000000     0.066450000000     0.0393239  
H13      H      0.192310000000     0.573460000000     0.050580000000     0.0410322  
H14      H      0.236100000000     0.586510000000     0.980040000000     0.0416355  
H15      H      0.308260000000     0.427640000000     0.916120000000     0.0418186  
H16      H      0.225590000000     0.495990000000     0.891910000000     0.0376297  
H17      H      0.497150000000     0.757530000000     0.093450000000     0.0392511  
H18      H      0.589940000000     0.752890000000     0.002630000000     0.0412372  
H19      H      0.562380000000     0.674730000000     0.925180000000     0.0398281  
H20      H      0.425790000000     0.793070000000     0.068580000000     0.0421698  
H21      H      0.425000000000     0.676180000000     0.069500000000     0.0411363  
H22      H      0.402260000000     0.711180000000     0.997360000000     0.0391113  
H23      H      0.569250000000     0.790880000000     0.930710000000     0.0398725  
H24      H      0.490170000000     0.713270000000     0.906390000000     0.0412361  
H25      H      0.498500000000     0.250790000000     0.115980000000     0.0409588  
H26      H      0.596930000000     0.257980000000     0.037630000000     0.0383675  
H27      H      0.583700000000     0.179060000000     0.960740000000     0.040942   
H28      H      0.429050000000     0.290770000000     0.090760000000     0.0377397  
H29      H      0.422860000000     0.175100000000     0.077690000000     0.0386578  
H30      H      0.411710000000     0.217040000000     0.005860000000     0.0424151  
H31      H      0.583400000000     0.296520000000     0.964980000000     0.039511   
H32      H      0.516460000000     0.215850000000     0.927540000000     0.0394448  
H33      H      0.487260000000     0.903490000000     0.780930000000     0.0389384  
H34      H      0.575230000000     0.002530000000     0.774420000000     0.0435579  
H35      H      0.540680000000     0.084150000000     0.702680000000     0.0400563  
H36      H      0.413640000000     0.927770000000     0.812190000000     0.0412374  
H37      H      0.425740000000     0.922560000000     0.692040000000     0.0408621  
H38      H      0.389220000000     0.989600000000     0.724990000000     0.0375623  
H39      H      0.549870000000     0.070800000000     0.816100000000     0.0380743  
H40      H      0.465870000000     0.089920000000     0.740730000000     0.0418153  
H41      H      0.516060000000     0.897660000000     0.235000000000     0.0384659  
H42      H      0.429810000000     0.996720000000     0.243350000000     0.0437677  
H43      H      0.468900000000     0.081040000000     0.309940000000     0.0398841  
H44      H      0.587940000000     0.919560000000     0.198420000000     0.0404396  
H45      H      0.583590000000     0.919100000000     0.319200000000     0.0404348  
H46      H      0.618350000000     0.984580000000     0.281500000000     0.0379439  
H47      H      0.452220000000     0.063610000000     0.197890000000     0.0384536  
H48      H      0.541110000000     0.085070000000     0.266990000000     0.0422043  
H49      H      0.884790000000     0.521190000000     0.726710000000     0.0411706  
H50      H      0.971150000000     0.611480000000     0.721940000000     0.0376479  
H51      H      0.041800000000     0.591930000000     0.804910000000     0.0420559  
H52      H      0.904140000000     0.450390000000     0.686290000000     0.0388476  
H53      H      0.913660000000     0.441100000000     0.802010000000     0.0386482  
H54      H      0.985580000000     0.424560000000     0.761700000000     0.0426785  
H55      H      0.043940000000     0.591780000000     0.686310000000     0.0396374  
H56      H      0.072940000000     0.523570000000     0.768760000000     0.0396371  
H57      H      0.104920000000     0.501350000000     0.265190000000     0.0410056  
H58      H      0.015110000000     0.590280000000     0.260520000000     0.040362   
H59      H      0.934830000000     0.560770000000     0.186810000000     0.041138   
H60      H      0.084110000000     0.432260000000     0.307600000000     0.0389777  
H61      H      0.077430000000     0.421880000000     0.189480000000     0.038784   
H62      H      0.006830000000     0.401940000000     0.230340000000     0.0413207  
H63      H      0.944240000000     0.573800000000     0.301390000000     0.0408791  
H64      H      0.916740000000     0.491580000000     0.229290000000     0.0402928  
H65      H      0.242860000000     0.009850000000     0.377540000000     0.0407241  
H66      H      0.236310000000     0.910110000000     0.452230000000     0.038835   
H67      H      0.310260000000     0.921960000000     0.535140000000     0.041742   
H68      H      0.201590000000     0.077760000000     0.404050000000     0.0374974  
H69      H      0.318440000000     0.083140000000     0.419720000000     0.0386798  
H70      H      0.274140000000     0.093750000000     0.490280000000     0.0421921  
H71      H      0.193700000000     0.919170000000     0.523400000000     0.0385059  
H72      H      0.270740000000     0.988240000000     0.566560000000     0.0405766  
H73      H      0.768750000000     0.998300000000     0.425340000000     0.0433869  
H74      H      0.784450000000     0.099430000000     0.508830000000     0.0384375  
H75      H      0.699380000000     0.084670000000     0.576620000000     0.0410444  
H76      H      0.811130000000     0.929860000000     0.449060000000     0.0378751  
H77      H      0.698670000000     0.918620000000     0.467970000000     0.040267   
H78      H      0.742400000000     0.914760000000     0.539640000000     0.0425606  
H79      H      0.820450000000     0.076740000000     0.580680000000     0.0406265  
H80      H      0.733540000000     0.018610000000     0.613790000000     0.0378367  
H81      H      0.002920000000     0.732210000000     0.582100000000     0.0383131  
H82      H      0.909490000000     0.740010000000     0.492670000000     0.0423963  
H83      H      0.936200000000     0.816300000000     0.412640000000     0.0382505  
H84      H      0.074470000000     0.699080000000     0.554540000000     0.0403731  
H85      H      0.069240000000     0.817420000000     0.560340000000     0.0403022  
H86      H      0.097020000000     0.784520000000     0.488850000000     0.0378329  
H87      H      0.927950000000     0.701420000000     0.420340000000     0.0376996  
H88      H      0.008710000000     0.777530000000     0.395020000000     0.0425925  
H89      H      0.908570000000     0.270780000000     0.502460000000     0.0407322  
H90      H      0.000730000000     0.277070000000     0.590690000000     0.0385888  
H91      H      0.075230000000     0.199950000000     0.562260000000     0.0425077  
H92      H      0.923050000000     0.314900000000     0.432600000000     0.0413497  
H93      H      0.938720000000     0.202170000000     0.416990000000     0.0411718  
H94      H      0.008300000000     0.246430000000     0.401250000000     0.0417253  
H95      H      0.069910000000     0.317480000000     0.567590000000     0.0424233  
H96      H      0.098130000000     0.240330000000     0.493020000000     0.0387921  
N1       N      0.811260000000     0.494290000000     0.008770000000    -0.166475   
N2       N      0.684400000000     0.479760000000     0.029760000000    -0.166792   
N3       N      0.184190000000     0.503040000000     0.980600000000    -0.16594    
N4       N      0.312120000000     0.485530000000     0.997120000000    -0.165508   
N5       N      0.491130000000     0.669440000000     0.994540000000    -0.165081   
N6       N      0.502430000000     0.798350000000     0.004270000000    -0.165867   
N7       N      0.498780000000     0.171190000000     0.013180000000    -0.165797   
N8       N      0.507990000000     0.298990000000     0.030760000000    -0.166146   
N9       N      0.479790000000     0.006260000000     0.691020000000    -0.166223   
N10      N      0.488290000000     0.993010000000     0.820350000000    -0.165458   
N11      N      0.530180000000     0.003210000000     0.320340000000    -0.166477   
N12      N      0.513890000000     0.985820000000     0.192720000000    -0.165799   
N13      N      0.984410000000     0.510560000000     0.809560000000    -0.165562   
N14      N      0.971920000000     0.522800000000     0.680700000000    -0.166418   
N15      N      0.003210000000     0.487620000000     0.182430000000    -0.165627   
N16      N      0.017280000000     0.505790000000     0.310140000000    -0.1657     
N17      N      0.320150000000     0.007040000000     0.483590000000    -0.165466   
N18      N      0.192550000000     0.997190000000     0.461200000000    -0.165766   
N19      N      0.692740000000     0.998700000000     0.526880000000    -0.164846   
N20      N      0.821680000000     0.008980000000     0.507980000000    -0.165567   
N21      N      0.006880000000     0.822930000000     0.482450000000    -0.165941   
N22      N      0.996790000000     0.694170000000     0.491850000000    -0.166321   
N23      N      0.011230000000     0.195190000000     0.485350000000    -0.165998   
N24      N      0.992720000000     0.322090000000     0.503870000000    -0.166337   
O1       O      0.022820000000     0.102100000000     0.535040000000    -0.397442   
O2       O      0.009530000000     0.914670000000     0.535260000000    -0.396624   
O3       O      0.107230000000     0.999340000000     0.523600000000    -0.398469   
O4       O      0.920540000000     0.016580000000     0.547390000000    -0.393702   
O5       O      0.907110000000     0.004650000000     0.445010000000    -0.398015   
O6       O      0.094840000000     0.013380000000     0.421330000000    -0.393325   
O7       O      0.001830000000     0.915650000000     0.431510000000    -0.397879   
O8       O      0.996240000000     0.103180000000     0.434650000000    -0.398911   
O9       O      0.057870000000     0.497770000000     0.408770000000    -0.393029   
O10      O      0.034710000000     0.519110000000     0.595400000000    -0.397608   
O11      O      0.044250000000     0.414480000000     0.512970000000    -0.396886   
O12      O      0.047890000000     0.601530000000     0.495920000000    -0.396958   
O13      O      0.944060000000     0.602330000000     0.488090000000    -0.398912   
O14      O      0.943580000000     0.414660000000     0.487120000000    -0.398964   
O15      O      0.932090000000     0.507170000000     0.583040000000    -0.396049   
O16      O      0.955470000000     0.510700000000     0.395930000000    -0.400328   
O17      O      0.490120000000     0.953160000000     0.599380000000    -0.396219   
O18      O      0.520040000000     0.951510000000     0.412640000000    -0.396358   
O19      O      0.598670000000     0.950030000000     0.517530000000    -0.398358   
O20      O      0.411730000000     0.954390000000     0.494220000000    -0.39828    
O21      O      0.413730000000     0.057840000000     0.491370000000    -0.39476    
O22      O      0.601490000000     0.053470000000     0.519560000000    -0.393916   
O23      O      0.518840000000     0.055040000000     0.412170000000    -0.399505   
O24      O      0.495990000000     0.056510000000     0.598910000000    -0.399506   
O25      O      0.558790000000     0.976820000000     0.096620000000    -0.395174   
O26      O      0.545750000000     0.994510000000     0.909370000000    -0.399798   
O27      O      0.551440000000     0.079200000000     0.008660000000    -0.396316   
O28      O      0.552650000000     0.891500000000     0.993550000000    -0.395009   
O29      O      0.450830000000     0.890480000000     0.014510000000    -0.397494   
O30      O      0.447370000000     0.078330000000     0.010530000000    -0.397159   
O31      O      0.442820000000     0.980880000000     0.916080000000    -0.393921   
O32      O      0.455680000000     0.988640000000     0.104230000000    -0.399945   
O33      O      0.985370000000     0.452960000000     0.898770000000    -0.397215   
O34      O      0.011360000000     0.441520000000     0.086240000000    -0.392321   
O35      O      0.905020000000     0.444960000000     0.001990000000    -0.398492   
O36      O      0.092190000000     0.449680000000     0.978400000000    -0.396765   
O37      O      0.091090000000     0.551160000000     0.998540000000    -0.398964   
O38      O      0.902590000000     0.548500000000     0.003900000000    -0.398745   
O39      O      0.997370000000     0.543830000000     0.093220000000    -0.401233   
O40      O      0.995570000000     0.555750000000     0.905340000000    -0.396474   
O41      O      0.409190000000     0.475710000000     0.953600000000    -0.395059   
O42      O      0.597250000000     0.477660000000     0.969970000000    -0.400026   
O43      O      0.507030000000     0.385510000000     0.970590000000    -0.399202   
O44      O      0.504190000000     0.572570000000     0.952430000000    -0.39484    
O45      O      0.490140000000     0.582690000000     0.054940000000    -0.398477   
O46      O      0.493410000000     0.395370000000     0.073250000000    -0.395026   
O47      O      0.587730000000     0.492680000000     0.072480000000    -0.397324   
O48      O      0.400010000000     0.489500000000     0.056220000000    -0.401791   


