data_structure

_audit_creation_method RASPA-1.0
_audit_creation_date 2023-6-4
_audit_author_name 'Poobodin Mano'

_cell_length_a    20.4585
_cell_length_b    20.2777
_cell_length_c    18.0474
_cell_angle_alpha 89.9989
_cell_angle_beta  89.9989
_cell_angle_gamma 94.7717
_cell_volume      7461.04

_symmetry_cell_setting          triclinic
_symmetry_space_group_name_Hall 'P 1'
_symmetry_space_group_name_H-M  'P 1'
_symmetry_Int_Tables_number     1

_symmetry_equiv_pos_as_xyz 'x,y,z'

loop_
_atom_site_label
_atom_site_type_symbol
_atom_site_fract_x
_atom_site_fract_y
_atom_site_fract_z
_atom_site_charge
C1       C      0.206740000000     0.766410000000     0.314830000000     0.413435   
C2       C      0.055760000000     0.968820000000     0.322220000000     0.398264   
C3       C      0.237870000000     0.950960000000     0.330290000000     0.403336   
C4       C      0.025980000000     0.782800000000     0.303600000000     0.406469   
C5       C      0.978330000000     0.064100000000     0.858850000000     0.398317   
C6       C      0.774880000000     0.212510000000     0.836680000000     0.406401   
C7       C      0.953970000000     0.246820000000     0.860560000000     0.405659   
C8       C      0.797240000000     0.026270000000     0.835150000000     0.405398   
C9       C      0.617660000000     0.358440000000     0.186350000000     0.483579   
C10      C      0.626690000000     0.388530000000     0.464640000000     0.48838    
C11      C      0.722060000000     0.291720000000     0.326250000000     0.481281   
C12      C      0.534840000000     0.441700000000     0.313760000000     0.469865   
C13      C      0.359780000000     0.616890000000     0.688490000000     0.478013   
C14      C      0.383280000000     0.620840000000     0.967260000000     0.49321    
C15      C      0.441400000000     0.536000000000     0.820630000000     0.452889   
C16      C      0.286250000000     0.719990000000     0.838070000000     0.491736   
C17      C      0.537150000000     0.333980000000     0.087550000000     0.0183546  
C18      C      0.467870000000     0.635810000000     0.063280000000     0.0207318  
C19      C      0.371260000000     0.559630000000     0.086620000000     0.194524   
C20      C      0.512630000000     0.580130000000     0.048720000000    -0.109431   
C21      C      0.490580000000     0.389170000000     0.094560000000    -0.0991269  
C22      C      0.406870000000     0.497160000000     0.071950000000    -0.160066   
C23      C      0.521100000000     0.458610000000     0.073490000000     0.0106957  
C24      C      0.482020000000     0.510450000000     0.068980000000     0.0331143  
C25      C      0.633770000000     0.410390000000     0.063870000000     0.0191449  
C26      C      0.596070000000     0.472400000000     0.068910000000    -0.0980789  
C27      C      0.413000000000     0.635750000000     0.567130000000     0.018205   
C28      C      0.564430000000     0.372230000000     0.580460000000     0.0209935  
C29      C      0.639070000000     0.471680000000     0.566430000000     0.193707   
C30      C      0.502500000000     0.408590000000     0.568450000000    -0.109089   
C31      C      0.475080000000     0.598700000000     0.571850000000    -0.0969663  
C32      C      0.583660000000     0.516760000000     0.551440000000    -0.160439   
C33      C      0.462520000000     0.522900000000     0.573740000000     0.0097274  
C34      C      0.514670000000     0.484460000000     0.568960000000     0.0330313  
C35      C      0.338420000000     0.536810000000     0.587440000000     0.0165319  
C36      C      0.393890000000     0.490560000000     0.593150000000    -0.0980119  
C37      C      0.046580000000     0.995010000000     0.935360000000     0.0106013  
C38      C      0.251630000000     0.826360000000     0.794050000000     0.0188469  
C39      C      0.178960000000     0.755030000000     0.881620000000     0.189491   
C40      C      0.228650000000     0.888810000000     0.829890000000    -0.111511   
C41      C      0.062850000000     0.923530000000     0.921760000000    -0.0974655  
C42      C      0.156740000000     0.817930000000     0.918480000000    -0.159255   
C43      C      0.114910000000     0.920500000000     0.862060000000     0.00917608 
C44      C      0.161580000000     0.875780000000     0.865220000000     0.0352623  
C45      C      0.081460000000     0.027380000000     0.806100000000     0.0102514  
C46      C      0.101130000000     0.957300000000     0.790990000000    -0.0975467  
C47      C      0.723240000000     0.940020000000     0.895190000000     0.0137525  
C48      C      0.509960000000     0.756940000000     0.742030000000    -1.77934e-05
C49      C      0.471350000000     0.803010000000     0.854570000000     0.176569   
C50      C      0.572040000000     0.805570000000     0.740660000000    -0.0993786  
C51      C      0.650030000000     0.938560000000     0.880310000000    -0.0989982  
C52      C      0.535010000000     0.843550000000     0.872550000000    -0.150238   
C53      C      0.633350000000     0.899350000000     0.809710000000     0.0115362  
C54      C      0.580140000000     0.853710000000     0.805920000000     0.0300624  
C55      C      0.748530000000     0.931250000000     0.760470000000     0.0119688  
C56      C      0.675170000000     0.919840000000     0.741930000000    -0.0987491  
C57      C      0.545940000000     0.497990000000     0.773820000000     0.0115552  
C58      C      0.681790000000     0.261050000000     0.895270000000     0.0165139  
C59      C      0.733330000000     0.312700000000     0.779490000000     0.185675   
C60      C      0.614100000000     0.279760000000     0.870290000000    -0.11178    
C61      C      0.601050000000     0.462970000000     0.810670000000    -0.0982436  
C62      C      0.666440000000     0.336470000000     0.757470000000    -0.159935   
C63      C      0.579530000000     0.391420000000     0.829680000000     0.00986271 
C64      C      0.620950000000     0.341730000000     0.823220000000     0.0348226  
C65      C      0.461370000000     0.417670000000     0.833720000000     0.014251   
C66      C      0.515660000000     0.382730000000     0.872660000000    -0.101392   
C67      C      0.003000000000     0.348240000000     0.800960000000     0.0111776  
C68      C      0.219090000000     0.501480000000     0.917700000000    -0.00976999 
C69      C      0.178470000000     0.550320000000     0.807160000000     0.169752   
C70      C      0.159360000000     0.450920000000     0.923740000000    -0.0952934  
C71      C      0.994130000000     0.420010000000     0.821770000000    -0.0996961  
C72      C      0.119770000000     0.499510000000     0.800420000000    -0.148104   
C73      C      0.040290000000     0.437590000000     0.885690000000     0.0134662  
C74      C      0.102340000000     0.466630000000     0.874090000000     0.0297603  
C75      C      0.025190000000     0.324200000000     0.937290000000     0.0111596  
C76      C      0.020380000000     0.397640000000     0.954110000000    -0.099913   
C77      C      0.416400000000     0.459190000000     0.320320000000     0.0153739  
C78      C      0.288000000000     0.703660000000     0.250110000000     0.0168304  
C79      C      0.246390000000     0.669680000000     0.378860000000     0.187841   
C80      C      0.354160000000     0.681480000000     0.276300000000    -0.110676   
C81      C      0.382690000000     0.509870000000     0.366850000000    -0.10144    
C82      C      0.278390000000     0.605470000000     0.360470000000    -0.159326   
C83      C      0.394270000000     0.578690000000     0.333480000000     0.0108521  
C84      C      0.345120000000     0.619910000000     0.324450000000     0.0332832  
C85      C      0.497690000000     0.548900000000     0.272100000000     0.0135693  
C86      C      0.465750000000     0.600720000000     0.318040000000    -0.0989984  
C87      C      0.923740000000     0.729360000000     0.356310000000     0.0114347  
C88      C      0.765410000000     0.503760000000     0.232820000000    -0.00249056 
C89      C      0.705660000000     0.559710000000     0.324210000000     0.17693    
C90      C      0.819610000000     0.560970000000     0.227110000000    -0.0986202  
C91      C      0.854780000000     0.732170000000     0.324250000000    -0.0988467  
C92      C      0.758810000000     0.615820000000     0.335410000000    -0.150364   
C93      C      0.845630000000     0.680800000000     0.262860000000     0.0119777  
C94      C      0.806300000000     0.623110000000     0.270850000000     0.03102    
C95      C      0.964290000000     0.695290000000     0.230350000000     0.011302   
C96      C      0.894360000000     0.694020000000     0.200140000000    -0.0989723  
C97      C      0.016080000000     0.069320000000     0.264380000000     0.00942199 
C98      C      0.755540000000     0.181060000000     0.353370000000     0.0224832  
C99      C      0.826530000000     0.258560000000     0.271310000000     0.188357   
C100     C      0.816290000000     0.153800000000     0.387000000000    -0.113911   
C101     C      0.947340000000     0.093200000000     0.253170000000    -0.0968264  
C102     C      0.887660000000     0.225860000000     0.298520000000    -0.159975   
C103     C      0.914030000000     0.108710000000     0.325850000000     0.00913605 
C104     C      0.871610000000     0.157430000000     0.331170000000     0.0367985  
C105     C      0.987920000000     0.039320000000     0.396580000000     0.0110889  
C106     C      0.917130000000     0.056060000000     0.385070000000    -0.097794   
C107     C      0.326470000000     0.007550000000     0.407330000000     0.00938071 
C108     C      0.493780000000     0.216530000000     0.278780000000    -0.00294612 
C109     C      0.547480000000     0.184430000000     0.391340000000     0.175134   
C110     C      0.436500000000     0.164500000000     0.289150000000    -0.0988993  
C111     C      0.401450000000     0.005740000000     0.400570000000    -0.098985   
C112     C      0.492080000000     0.131040000000     0.409790000000    -0.150117   
C113     C      0.424980000000     0.046550000000     0.333840000000     0.0121302  
C114     C      0.454190000000     0.109280000000     0.340630000000     0.0302807  
C115     C      0.320150000000     0.028190000000     0.268560000000     0.0116748  
C116     C      0.393420000000     0.020990000000     0.262860000000    -0.099476   
Cu1      Cu     0.135230000000     0.872240000000     0.249650000000     0.841903   
Cu2      Cu     0.127370000000     0.862730000000     0.385770000000     0.845636   
Cu3      Cu     0.882580000000     0.138950000000     0.779660000000     0.843402   
Cu4      Cu     0.868570000000     0.134600000000     0.915460000000     0.843788   
Cu5      Cu     0.675650000000     0.422880000000     0.315160000000     1.20282    
Cu6      Cu     0.582440000000     0.312970000000     0.336870000000     1.22619    
Cu7      Cu     0.416030000000     0.676620000000     0.819140000000     1.19858    
Cu8      Cu     0.310550000000     0.579780000000     0.837980000000     1.20227    
H1       H      0.447140000000     0.375070000000     0.059240000000     0.0412831  
H2       H      0.468520000000     0.647240000000     0.123610000000     0.0204082  
H3       H      0.632340000000     0.392440000000     0.005550000000     0.0225111  
H4       H      0.609910000000     0.503450000000     0.019710000000     0.0414653  
H5       H      0.558400000000     0.592760000000     0.080590000000     0.0438645  
H6       H      0.391810000000     0.461460000000     0.116670000000     0.0576674  
H7       H      0.517780000000     0.289870000000     0.119740000000     0.0298576  
H8       H      0.487120000000     0.681550000000     0.033830000000     0.0414759  
H9       H      0.612960000000     0.500220000000     0.119440000000     0.0546684  
H10      H      0.389960000000     0.475210000000     0.018090000000     0.0775899  
H11      H      0.686110000000     0.422680000000     0.078910000000     0.0312556  
H12      H      0.378580000000     0.573560000000     0.146040000000    -0.0122439  
H13      H      0.474010000000     0.390680000000     0.153190000000     0.0531768  
H14      H      0.525260000000     0.580360000000     0.988780000000     0.0571994  
H15      H      0.539080000000     0.318830000000     0.028620000000     0.0192867  
H16      H      0.284660000000     0.521480000000     0.115090000000     0.134415   
H17      H      0.506400000000     0.614480000000     0.523660000000     0.040057   
H18      H      0.576520000000     0.373830000000     0.640510000000     0.0229237  
H19      H      0.323600000000     0.540170000000     0.528420000000     0.0218512  
H20      H      0.380830000000     0.447570000000     0.556280000000     0.0424477  
H21      H      0.467300000000     0.391310000000     0.612590000000     0.046008   
H22      H      0.594750000000     0.562280000000     0.584920000000     0.0572795  
H23      H      0.424240000000     0.688370000000     0.583530000000     0.0316165  
H24      H      0.554840000000     0.319230000000     0.564900000000     0.0456427  
H25      H      0.395230000000     0.472260000000     0.651190000000     0.0548778  
H26      H      0.584220000000     0.530740000000     0.492100000000     0.0817857  
H27      H      0.294860000000     0.515800000000     0.619010000000     0.0428852  
H28      H      0.645860000000     0.468450000000     0.627680000000    -0.0150061  
H29      H      0.501620000000     0.614730000000     0.623370000000     0.0534765  
H30      H      0.480740000000     0.393300000000     0.514020000000     0.0616375  
H31      H      0.395740000000     0.635100000000     0.508580000000     0.0235383  
H32      H      0.714900000000     0.535990000000     0.565200000000     0.134857   
H33      H      0.079700000000     0.904770000000     0.975740000000     0.0417657  
H34      H      0.222180000000     0.815700000000     0.743000000000     0.0240185  
H35      H      0.125980000000     0.058340000000     0.824360000000     0.0278317  
H36      H      0.142250000000     0.960790000000     0.751080000000     0.0423023  
H37      H      0.231920000000     0.929070000000     0.788440000000     0.0449965  
H38      H      0.105560000000     0.805440000000     0.937440000000     0.0592359  
H39      H      0.005280000000     0.994170000000     0.975480000000     0.0367194  
H40      H      0.303520000000     0.836890000000     0.776330000000     0.0341177  
H41      H      0.059620000000     0.928990000000     0.762420000000     0.0514338  
H42      H      0.187650000000     0.831010000000     0.967870000000     0.0728896  
H43      H      0.064750000000     0.048850000000     0.753420000000     0.0369655  
H44      H      0.141850000000     0.737830000000     0.838950000000    -0.0109236  
H45      H      0.017820000000     0.892880000000     0.904590000000     0.0498783  
H46      H      0.264020000000     0.905080000000     0.874350000000     0.0526003  
H47      H      0.089840000000     0.022760000000     0.961420000000     0.0289934  
H48      H      0.137300000000     0.684620000000     0.943030000000     0.137242   
H49      H      0.625590000000     0.917710000000     0.930880000000     0.0425912  
H50      H      0.470250000000     0.777600000000     0.709340000000     0.0274238  
H51      H      0.768110000000     0.882040000000     0.767300000000     0.0263907  
H52      H      0.670790000000     0.883200000000     0.696340000000     0.04109    
H53      H      0.570760000000     0.833700000000     0.687920000000     0.041008   
H54      H      0.521630000000     0.892140000000     0.893810000000     0.0564398  
H55      H      0.734650000000     0.968090000000     0.947120000000     0.036063   
H56      H      0.521310000000     0.710230000000     0.714600000000     0.0272331  
H57      H      0.658110000000     0.966690000000     0.720060000000     0.0511714  
H58      H      0.561080000000     0.817830000000     0.916760000000     0.0710622  
H59      H      0.774790000000     0.956330000000     0.713020000000     0.0358217  
H60      H      0.440430000000     0.832070000000     0.817700000000    -0.00761996 
H61      H      0.635660000000     0.989870000000     0.873320000000     0.0525306  
H62      H      0.615570000000     0.776180000000     0.739460000000     0.0461748  
H63      H      0.736460000000     0.888450000000     0.904150000000     0.0269001  
H64      H      0.413290000000     0.826800000000     0.933600000000     0.142109   
H65      H      0.645100000000     0.469270000000     0.775100000000     0.0419357  
H66      H      0.703220000000     0.299480000000     0.934310000000     0.0296373  
H67      H      0.447440000000     0.390290000000     0.781880000000     0.0266954  
H68      H      0.497290000000     0.329860000000     0.877850000000     0.0419242  
H69      H      0.585510000000     0.286500000000     0.921330000000     0.045433   
H70      H      0.675090000000     0.382830000000     0.725450000000     0.0632985  
H71      H      0.562020000000     0.551460000000     0.768060000000     0.0346462  
H72      H      0.675040000000     0.213490000000     0.926230000000     0.0336781  
H73      H      0.523640000000     0.403650000000     0.929010000000     0.0517022  
H74      H      0.642000000000     0.299670000000     0.718600000000     0.0767827  
H75      H      0.417620000000     0.414620000000     0.870520000000     0.0347466  
H76      H      0.761630000000     0.354490000000     0.808550000000    -0.00966851 
H77      H      0.614550000000     0.489130000000     0.863320000000     0.0483769  
H78      H      0.588880000000     0.238530000000     0.837870000000     0.0531247  
H79      H      0.538870000000     0.477530000000     0.717190000000     0.0284758  
H80      H      0.787020000000     0.339140000000     0.693790000000     0.140567   
H81      H      0.001000000000     0.451600000000     0.772000000000     0.0437399  
H82      H      0.210430000000     0.546290000000     0.950770000000     0.0470542  
H83      H      0.077850000000     0.315100000000     0.932440000000     0.0271388  
H84      H      0.048250000000     0.412750000000     0.004660000000     0.042796   
H85      H      0.145840000000     0.449320000000     0.983080000000     0.0442231  
H86      H      0.078890000000     0.527470000000     0.780120000000     0.0573763  
H87      H      0.968630000000     0.333970000000     0.754850000000     0.0393636  
H88      H      0.261810000000     0.478880000000     0.942030000000     0.0418561  
H89      H      0.968440000000     0.405090000000     0.967560000000     0.050614   
H90      H      0.130160000000     0.461030000000     0.759120000000     0.0724984  
H91      H      0.005030000000     0.294510000000     0.985070000000     0.0357957  
H92      H      0.163970000000     0.591770000000     0.842720000000     0.000398133
H93      H      0.942570000000     0.423940000000     0.839710000000     0.0509923  
H94      H      0.174380000000     0.401410000000     0.907860000000     0.0494992  
H95      H      0.053760000000     0.344600000000     0.780150000000     0.0310783  
H96      H      0.167770000000     0.610920000000     0.725450000000     0.139895   
H97      H      0.330000000000     0.492050000000     0.369680000000     0.0429448  
H98      H      0.297320000000     0.749400000000     0.216380000000     0.0379651  
H99      H      0.475800000000     0.548180000000     0.215940000000     0.0276347  
H100     H      0.473400000000     0.649070000000     0.289390000000     0.0402546  
H101     H      0.380770000000     0.722120000000     0.308370000000     0.0507403  
H102     H      0.282600000000     0.578590000000     0.413580000000     0.0602279  
H103     H      0.411680000000     0.410910000000     0.349830000000     0.035142   
H104     H      0.263590000000     0.664880000000     0.213560000000     0.0386406  
H105     H      0.491790000000     0.606550000000     0.372010000000     0.0466416  
H106     H      0.246230000000     0.574250000000     0.322400000000     0.0729755  
H107     H      0.550730000000     0.564490000000     0.265940000000     0.0328567  
H108     H      0.275610000000     0.696830000000     0.423250000000    -0.00309916 
H109     H      0.402880000000     0.510730000000     0.423970000000     0.0515509  
H110     H      0.383050000000     0.671700000000     0.225950000000     0.049889   
H111     H      0.389950000000     0.452460000000     0.266630000000     0.0234922  
H112     H      0.185590000000     0.640720000000     0.457450000000     0.141978   
H113     H      0.819160000000     0.726390000000     0.370370000000     0.0420429  
H114     H      0.726900000000     0.511030000000     0.190720000000     0.0279257  
H115     H      0.973630000000     0.644030000000     0.246710000000     0.03166    
H116     H      0.888470000000     0.658870000000     0.153380000000     0.0418092  
H117     H      0.825110000000     0.571880000000     0.167200000000     0.0415339  
H118     H      0.732940000000     0.661580000000     0.341830000000     0.0551514  
H119     H      0.931380000000     0.767960000000     0.399970000000     0.0360067  
H120     H      0.786750000000     0.456620000000     0.219300000000     0.0391543  
H121     H      0.887230000000     0.743450000000     0.176240000000     0.0508628  
H122     H      0.786640000000     0.607030000000     0.386960000000     0.0765237  
H123     H      0.999490000000     0.710480000000     0.185380000000     0.0378569  
H124     H      0.672710000000     0.572320000000     0.277760000000    -0.0108733  
H125     H      0.850140000000     0.782170000000     0.300480000000     0.0498771  
H126     H      0.866340000000     0.543340000000     0.247620000000     0.054148   
H127     H      0.927450000000     0.680240000000     0.382740000000     0.0339024  
H128     H      0.637210000000     0.586060000000     0.389280000000     0.133354   
H129     H      0.951450000000     0.134990000000     0.213640000000     0.0415801  
H130     H      0.736550000000     0.147710000000     0.307870000000     0.0252487  
H131     H      0.016780000000     0.083350000000     0.420110000000     0.0303914  
H132     H      0.899820000000     0.073030000000     0.439640000000     0.0425935  
H133     H      0.801260000000     0.102020000000     0.403700000000     0.0453829  
H134     H      0.923460000000     0.226800000000     0.252550000000     0.0597162  
H135     H      0.032810000000     0.048660000000     0.211260000000     0.0363883  
H136     H      0.717200000000     0.179920000000     0.397200000000     0.0333949  
H137     H      0.886060000000     0.010920000000     0.368370000000     0.0492925  
H138     H      0.911500000000     0.257240000000     0.343050000000     0.0763469  
H139     H      0.987600000000     0.998880000000     0.438230000000     0.0365439  
H140     H      0.810740000000     0.234370000000     0.217930000000    -0.0108756  
H141     H      0.916200000000     0.052920000000     0.225520000000     0.0497943  
H142     H      0.831970000000     0.182590000000     0.437280000000     0.0569775  
H143     H      0.050370000000     0.113160000000     0.277750000000     0.0285729  
H144     H      0.865120000000     0.330160000000     0.209400000000     0.135695   
H145     H      0.424430000000     0.022710000000     0.453580000000     0.0422836  
H146     H      0.532300000000     0.196480000000     0.243760000000     0.0267584  
H147     H      0.311750000000     0.081520000000     0.273140000000     0.0270808  
H148     H      0.415110000000     0.044800000000     0.212270000000     0.0418255  
H149     H      0.420520000000     0.147840000000     0.233240000000     0.041797   
H150     H      0.515410000000     0.088800000000     0.434970000000     0.0559826  
H151     H      0.308460000000     0.972260000000     0.451360000000     0.0365938  
H152     H      0.474910000000     0.259250000000     0.249580000000     0.0295427  
H153     H      0.401060000000     0.967560000000     0.256890000000     0.051544   
H154     H      0.457840000000     0.150500000000     0.450680000000     0.0708969  
H155     H      0.296650000000     0.009750000000     0.216220000000     0.0369418  
H156     H      0.585270000000     0.162210000000     0.356750000000    -0.00927049 
H157     H      0.413180000000     0.953680000000     0.392340000000     0.0488439  
H158     H      0.394840000000     0.188340000000     0.314400000000     0.0507337  
H159     H      0.315870000000     0.057970000000     0.425550000000     0.029508   
H160     H      0.606970000000     0.176560000000     0.474050000000     0.139886   
N1       N      0.401390000000     0.612960000000     0.039590000000    -0.202819   
N2       N      0.602260000000     0.359780000000     0.112760000000    -0.191074   
N3       N      0.618250000000     0.405640000000     0.537350000000    -0.200941   
N4       N      0.362890000000     0.602130000000     0.614760000000    -0.187515   
N5       N      0.242980000000     0.768040000000     0.843350000000    -0.203884   
N6       N      0.031580000000     0.027590000000     0.865120000000    -0.173172   
N7       N      0.487140000000     0.741970000000     0.817580000000    -0.248163   
N8       N      0.758440000000     0.968330000000     0.830200000000    -0.175803   
N9       N      0.726930000000     0.256050000000     0.832070000000    -0.187497   
N10      N      0.483310000000     0.486710000000     0.814380000000    -0.183686   
N11      N      0.234290000000     0.520010000000     0.840660000000    -0.243151   
N12      N      0.992000000000     0.304970000000     0.866600000000    -0.175404   
N13      N      0.245000000000     0.714110000000     0.313900000000    -0.189285   
N14      N      0.485300000000     0.482490000000     0.305230000000    -0.187837   
N15      N      0.736230000000     0.498600000000     0.307070000000    -0.240735   
N16      N      0.972610000000     0.738380000000     0.296340000000    -0.173975   
N17      N      0.770260000000     0.248380000000     0.323350000000    -0.200682   
N18      N      0.017810000000     0.021430000000     0.325810000000    -0.173086   
N19      N      0.521140000000     0.239020000000     0.350320000000    -0.248734   
N20      N      0.293340000000     0.993200000000     0.335360000000    -0.17476    
O1       O      0.194850000000     0.796560000000     0.254280000000    -0.396096   
O2       O      0.075770000000     0.948390000000     0.259330000000    -0.395036   
O3       O      0.213620000000     0.936970000000     0.266250000000    -0.406114   
O4       O      0.056400000000     0.805080000000     0.245540000000    -0.401708   
O5       O      0.045320000000     0.801560000000     0.368460000000    -0.397539   
O6       O      0.210630000000     0.925460000000     0.388980000000    -0.399268   
O7       O      0.071790000000     0.940690000000     0.382430000000    -0.401234   
O8       O      0.182720000000     0.784660000000     0.376480000000    -0.389189   
O9       O      0.961380000000     0.085020000000     0.795040000000    -0.396306   
O10      O      0.804230000000     0.194890000000     0.777890000000    -0.376163   
O11      O      0.940270000000     0.223080000000     0.796080000000    -0.401374   
O12      O      0.822750000000     0.053610000000     0.776600000000    -0.399876   
O13      O      0.808120000000     0.052580000000     0.898940000000    -0.40624    
O14      O      0.931270000000     0.217240000000     0.919070000000    -0.403774   
O15      O      0.791800000000     0.191400000000     0.900470000000    -0.398572   
O16      O      0.946020000000     0.077810000000     0.917090000000    -0.398449   
O17      O      0.660060000000     0.401460000000     0.212430000000    -0.482939   
O18      O      0.665440000000     0.423840000000     0.422790000000    -0.449838   
O19      O      0.735300000000     0.353070000000     0.313400000000    -0.459367   
O20      O      0.593930000000     0.464210000000     0.303040000000    -0.472331   
O21      O      0.521770000000     0.381210000000     0.331040000000    -0.475381   
O22      O      0.663340000000     0.269690000000     0.340320000000    -0.489374   
O23      O      0.590820000000     0.340620000000     0.437680000000    -0.477754   
O24      O      0.584010000000     0.319510000000     0.229480000000    -0.493986   
O25      O      0.399420000000     0.661900000000     0.715540000000    -0.48411    
O26      O      0.417900000000     0.660240000000     0.925460000000    -0.47017    
O27      O      0.462080000000     0.596160000000     0.807590000000    -0.462591   
O28      O      0.345000000000     0.734670000000     0.818160000000    -0.48094    
O29      O      0.267260000000     0.660290000000     0.851790000000    -0.47678    
O30      O      0.381370000000     0.521340000000     0.837970000000    -0.461597   
O31      O      0.336000000000     0.584380000000     0.940280000000    -0.466085   
O32      O      0.322210000000     0.580900000000     0.730870000000    -0.469586   
O33      O      0.303640000000     0.548130000000     0.072950000000    -0.279091   
O34      O      0.698350000000     0.497580000000     0.534410000000    -0.264216   
O35      O      0.182290000000     0.706340000000     0.936790000000    -0.275619   
O36      O      0.437510000000     0.787890000000     0.920790000000    -0.290673   
O37      O      0.766970000000     0.296890000000     0.714740000000    -0.273996   
O38      O      0.195600000000     0.574220000000     0.736280000000    -0.289823   
O39      O      0.182160000000     0.653170000000     0.404450000000    -0.279339   
O40      O      0.669010000000     0.551590000000     0.389490000000    -0.279144   
O41      O      0.843950000000     0.326220000000     0.258910000000    -0.274654   
O42      O      0.576110000000     0.208880000000     0.457490000000    -0.286372   


