data_structure

_audit_creation_method RASPA-1.0
_audit_creation_date 2023-6-4
_audit_author_name 'Poobodin Mano'

_cell_length_a    19.8265
_cell_length_b    20.9086
_cell_length_c    29.1181
_cell_angle_alpha 89.9989
_cell_angle_beta  89.9989
_cell_angle_gamma 94.7702
_cell_volume      12028.9

_symmetry_cell_setting          triclinic
_symmetry_space_group_name_Hall 'P 1'
_symmetry_space_group_name_H-M  'P 1'
_symmetry_Int_Tables_number     1

_symmetry_equiv_pos_as_xyz 'x,y,z'

loop_
_atom_site_label
_atom_site_type_symbol
_atom_site_fract_x
_atom_site_fract_y
_atom_site_fract_z
_atom_site_charge
C1       C      0.080900000000     0.894710000000     0.016400000000     0.40104    
C2       C      0.919440000000     0.087230000000     0.012070000000     0.396243   
C3       C      0.109180000000     0.074330000000     0.017660000000     0.402629   
C4       C      0.892830000000     0.906750000000     0.010260000000     0.40227    
C5       C      0.088850000000     0.887160000000     0.503770000000     0.395203   
C6       C      0.936800000000     0.086110000000     0.516580000000     0.397095   
C7       C      0.126690000000     0.065930000000     0.507440000000     0.407497   
C8       C      0.902510000000     0.908640000000     0.512960000000     0.405277   
C9       C      0.507680000000     0.476910000000     0.924820000000     0.478874   
C10      C      0.498780000000     0.494240000000     0.099390000000     0.466325   
C11      C      0.596190000000     0.419820000000     0.020510000000     0.463422   
C12      C      0.402260000000     0.564110000000     0.004690000000     0.47323    
C13      C      0.523050000000     0.485820000000     0.428210000000     0.547643   
C14      C      0.500100000000     0.488360000000     0.602110000000     0.474107   
C15      C      0.606690000000     0.409540000000     0.522830000000     0.473776   
C16      C      0.422930000000     0.564370000000     0.507430000000     0.467093   
C17      C      0.539140000000     0.531490000000     0.677340000000     0.0143792  
C18      C      0.457810000000     0.425600000000     0.856050000000     0.016776   
C19      C      0.562200000000     0.509500000000     0.850390000000     0.114586   
C20      C      0.474730000000     0.402900000000     0.807780000000    -0.109882   
C21      C      0.505630000000     0.549250000000     0.722410000000    -0.10149    
C22      C      0.572920000000     0.483750000000     0.801810000000    -0.134846   
C23      C      0.475710000000     0.488600000000     0.745380000000     0.0157534  
C24      C      0.506430000000     0.459150000000     0.780880000000     0.0310387  
C25      C      0.450790000000     0.434810000000     0.671250000000     0.0142428  
C26      C      0.419790000000     0.455850000000     0.716470000000    -0.10207    
C27      C      0.464670000000     0.465950000000     0.353940000000     0.016932   
C28      C      0.549170000000     0.552070000000     0.165990000000     0.0152986  
C29      C      0.453210000000     0.464780000000     0.178470000000     0.11428    
C30      C      0.578520000000     0.537410000000     0.213210000000    -0.109773   
C31      C      0.453190000000     0.516050000000     0.317130000000    -0.101474   
C32      C      0.482990000000     0.452450000000     0.225860000000    -0.135105   
C33      C      0.517310000000     0.530030000000     0.289280000000     0.0121951  
C34      C      0.522950000000     0.510920000000     0.244720000000     0.0304116  
C35      C      0.588500000000     0.501850000000     0.354740000000     0.0142361  
C36      C      0.578480000000     0.553070000000     0.318030000000    -0.100478   
C37      C      0.155410000000     0.817690000000     0.455730000000     0.010828   
C38      C      0.316250000000     0.601070000000     0.534320000000     0.0151589  
C39      C      0.391570000000     0.670950000000     0.480220000000     0.113505   
C40      C      0.253880000000     0.631120000000     0.515570000000    -0.10704    
C41      C      0.227360000000     0.797290000000     0.462060000000    -0.0991504  
C42      C      0.328210000000     0.698610000000     0.460260000000    -0.132945   
C43      C      0.229060000000     0.745490000000     0.498500000000     0.0124016  
C44      C      0.271530000000     0.697040000000     0.495080000000     0.0273905  
C45      C      0.125870000000     0.786600000000     0.537170000000     0.00964232 
C46      C      0.195790000000     0.761240000000     0.543750000000    -0.0985787  
C47      C      0.818610000000     0.835470000000     0.472140000000     0.0124135  
C48      C      0.671220000000     0.608040000000     0.560520000000    -0.00333079 
C49      C      0.673880000000     0.603510000000     0.478290000000     0.0933966  
C50      C      0.720420000000     0.668100000000     0.563220000000    -0.0944449  
C51      C      0.835190000000     0.765350000000     0.472790000000    -0.100069   
C52      C      0.722220000000     0.663910000000     0.473180000000    -0.1204     
C53      C      0.807640000000     0.734280000000     0.517200000000     0.0143988  
C54      C      0.755360000000     0.687080000000     0.517990000000     0.0217755  
C55      C      0.819620000000     0.839290000000     0.557920000000     0.0122678  
C56      C      0.835110000000     0.768850000000     0.560350000000    -0.100039   
C57      C      0.880010000000     0.162390000000     0.565130000000     0.0105141  
C58      C      0.657200000000     0.317430000000     0.490240000000     0.0164391  
C59      C      0.716210000000     0.381140000000     0.555920000000     0.112887   
C60      C      0.688160000000     0.257140000000     0.506820000000    -0.107772   
C61      C      0.863670000000     0.232750000000     0.560780000000    -0.100056   
C62      C      0.750140000000     0.320270000000     0.570180000000    -0.132677   
C63      C      0.810100000000     0.239380000000     0.524310000000     0.0137371  
C64      C      0.754970000000     0.273830000000     0.530810000000     0.027778   
C65      C      0.844190000000     0.142270000000     0.482450000000     0.0102842  
C66      C      0.828130000000     0.212280000000     0.478100000000    -0.0995519  
C67      C      0.425810000000     0.310350000000     0.538310000000    -0.0123567  
C68      C      0.199130000000     0.145440000000     0.464080000000     0.0131264  
C69      C      0.233600000000     0.115300000000     0.545210000000     0.111077   
C70      C      0.273220000000     0.148040000000     0.449510000000    -0.107731   
C71      C      0.373230000000     0.253420000000     0.542690000000    -0.0851537  
C72      C      0.307570000000     0.120560000000     0.528830000000    -0.133825   
C73      C      0.345190000000     0.230870000000     0.496260000000     0.00786199 
C74      C      0.316270000000     0.169390000000     0.490460000000     0.029218   
C75      C      0.388300000000     0.340320000000     0.463550000000    -0.00655565 
C76      C      0.335490000000     0.282730000000     0.460580000000    -0.087515   
C77      C      0.281230000000     0.582800000000     0.014260000000     0.0152638  
C78      C      0.180970000000     0.849580000000     0.985130000000     0.0133842  
C79      C      0.126100000000     0.801750000000     0.057530000000     0.110258   
C80      C      0.199500000000     0.783280000000     0.970240000000    -0.106234   
C81      C      0.248880000000     0.636340000000     0.040410000000    -0.10157    
C82      C      0.146400000000     0.734980000000     0.042890000000    -0.131496   
C83      C      0.257440000000     0.699110000000     0.013980000000     0.0140179  
C84      C      0.207210000000     0.740150000000     0.011330000000     0.0261201  
C85      C      0.361180000000     0.664480000000     0.974200000000     0.01534    
C86      C      0.329660000000     0.718980000000     0.999240000000    -0.100599   
C87      C      0.799210000000     0.844340000000     0.050590000000     0.0110714  
C88      C      0.584300000000     0.664740000000     0.970800000000    -0.000543193
C89      C      0.625840000000     0.648360000000     0.049470000000     0.0970768  
C90      C      0.641660000000     0.715350000000     0.960170000000    -0.0964935  
C91      C      0.723770000000     0.848840000000     0.042160000000    -0.100042   
C92      C      0.640390000000     0.722580000000     0.049170000000    -0.124354   
C93      C      0.703440000000     0.808070000000     0.000700000000     0.0143751  
C94      C      0.665630000000     0.750450000000     0.003390000000     0.0235721  
C95      C      0.816540000000     0.830760000000     0.964910000000     0.0105864  
C96      C      0.740050000000     0.831420000000     0.957310000000    -0.0998999  
C97      C      0.846780000000     0.157170000000     0.054600000000     0.0112928  
C98      C      0.713510000000     0.395940000000     0.003150000000     0.0149664  
C99      C      0.647260000000     0.327130000000     0.059850000000     0.113961   
C100     C      0.736300000000     0.335980000000     0.978440000000    -0.106362   
C101     C      0.776460000000     0.180770000000     0.046710000000    -0.0997444  
C102     C      0.662560000000     0.265750000000     0.034560000000    -0.134115   
C103     C      0.777630000000     0.232660000000     0.010120000000     0.0124521  
C104     C      0.729790000000     0.276600000000     0.009160000000     0.0253552  
C105     C      0.860230000000     0.166970000000     0.967920000000     0.0109206  
C106     C      0.835160000000     0.234080000000     0.975420000000    -0.0996914  
C107     C      0.185140000000     0.150520000000     0.062560000000     0.0111545  
C108     C      0.419760000000     0.309450000000     0.994300000000    -0.00568121 
C109     C      0.346080000000     0.350540000000     0.052560000000     0.0983187  
C110     C      0.368890000000     0.253890000000     0.981550000000    -0.0950639  
C111     C      0.261060000000     0.150520000000     0.071460000000    -0.100453   
C112     C      0.296460000000     0.290070000000     0.048010000000    -0.123935   
C113     C      0.299070000000     0.173230000000     0.028720000000     0.0151685  
C114     C      0.325460000000     0.235070000000     0.022720000000     0.0221994  
C115     C      0.207290000000     0.130130000000     0.977760000000     0.0109122  
C116     C      0.283100000000     0.129260000000     0.988220000000    -0.100664   
Cu1      Cu     0.003860000000     0.991720000000     0.971660000000     0.833848   
Cu2      Cu     0.997200000000     0.990570000000     0.056310000000     0.840289   
Cu3      Cu     0.010200000000     0.989880000000     0.468060000000     0.841637   
Cu4      Cu     0.017960000000     0.985410000000     0.552440000000     0.832856   
Cu5      Cu     0.546270000000     0.544480000000     0.007950000000     1.18942    
Cu6      Cu     0.449920000000     0.437040000000     0.014540000000     1.1645     
Cu7      Cu     0.563980000000     0.537000000000     0.518300000000     1.20658    
Cu8      Cu     0.463940000000     0.434380000000     0.512370000000     1.1787     
H1       H      0.540950000000     0.579690000000     0.744220000000     0.0423843  
H2       H      0.411790000000     0.452530000000     0.854010000000     0.0277534  
H3       H      0.482510000000     0.394490000000     0.678360000000     0.0263079  
H4       H      0.391030000000     0.414330000000     0.732550000000     0.04201    
H5       H      0.428570000000     0.378490000000     0.792610000000     0.0436575  
H6       H      0.602910000000     0.519920000000     0.780830000000     0.0546175  
H7       H      0.555240000000     0.576630000000     0.658730000000     0.0330224  
H8       H      0.443980000000     0.382260000000     0.877310000000     0.032273   
H9       H      0.381750000000     0.490540000000     0.708680000000     0.0493917  
H10      H      0.605390000000     0.442880000000     0.803970000000     0.0585692  
H11      H      0.408750000000     0.415870000000     0.648450000000     0.0342494  
H12      H      0.541960000000     0.557390000000     0.846840000000     0.00827088 
H13      H      0.464150000000     0.580120000000     0.714230000000     0.0495341  
H14      H      0.511360000000     0.365570000000     0.810540000000     0.0485526  
H15      H      0.585670000000     0.507370000000     0.685340000000     0.0250771  
H16      H      0.640260000000     0.477100000000     0.890660000000     0.0922065  
H17      H      0.634980000000     0.559810000000     0.892130000000     0.093657   
H18      H      0.407910000000     0.501530000000     0.296050000000     0.0424776  
H19      H      0.520080000000     0.595140000000     0.169120000000     0.0259804  
H20      H      0.600730000000     0.457380000000     0.336610000000     0.0253459  
H21      H      0.626000000000     0.560800000000     0.298010000000     0.0424571  
H22      H      0.603860000000     0.583160000000     0.226320000000     0.0442503  
H23      H      0.442000000000     0.432350000000     0.248810000000     0.0557916  
H24      H      0.418180000000     0.459040000000     0.375330000000     0.0310834  
H25      H      0.592860000000     0.565420000000     0.143050000000     0.0341285  
H26      H      0.569210000000     0.599120000000     0.335040000000     0.0481912  
H27      H      0.518440000000     0.414090000000     0.222760000000     0.0593841  
H28      H      0.633190000000     0.515360000000     0.376270000000     0.0282394  
H29      H      0.411110000000     0.496170000000     0.183620000000     0.00557542 
H30      H      0.441540000000     0.561140000000     0.334590000000     0.0477746  
H31      H      0.617080000000     0.502040000000     0.209630000000     0.0498399  
H32      H      0.472470000000     0.419480000000     0.336970000000     0.0249154  
H33      H      0.461000000000     0.376720000000     0.144710000000     0.0934308  
H34      H      0.380100000000     0.406250000000     0.143430000000     0.0915184  
H35      H      0.243450000000     0.780100000000     0.428000000000     0.0419584  
H36      H      0.330990000000     0.625340000000     0.567250000000     0.0253056  
H37      H      0.089390000000     0.745300000000     0.527940000000     0.0263436  
H38      H      0.190340000000     0.720480000000     0.568030000000     0.0417461  
H39      H      0.215310000000     0.630360000000     0.543030000000     0.0438791  
H40      H      0.344230000000     0.748450000000     0.449260000000     0.0544674  
H41      H      0.157580000000     0.858240000000     0.430920000000     0.0348405  
H42      H      0.301670000000     0.549860000000     0.542700000000     0.0346508  
H43      H      0.229270000000     0.799250000000     0.560960000000     0.0498181  
H44      H      0.310110000000     0.670720000000     0.429470000000     0.0585476  
H45      H      0.108970000000     0.805700000000     0.570490000000     0.0346023  
H46      H      0.413520000000     0.705400000000     0.506500000000     0.0108476  
H47      H      0.261980000000     0.839490000000     0.472210000000     0.0488854  
H48      H      0.231380000000     0.599600000000     0.487840000000     0.0515558  
H49      H      0.123340000000     0.777010000000     0.440370000000     0.0283929  
H50      H      0.431890000000     0.624430000000     0.423940000000     0.0857961  
H51      H      0.490410000000     0.674820000000     0.454130000000     0.0897528  
H52      H      0.816190000000     0.742490000000     0.440570000000     0.0422439  
H53      H      0.699880000000     0.564680000000     0.562070000000     0.0255926  
H54      H      0.763740000000     0.841460000000     0.559000000000     0.02627    
H55      H      0.815400000000     0.748750000000     0.593270000000     0.0416926  
H56      H      0.758420000000     0.657500000000     0.589560000000     0.0399681  
H57      H      0.761250000000     0.651170000000     0.448200000000     0.0516545  
H58      H      0.839060000000     0.858950000000     0.440250000000     0.0354147  
H59      H      0.637930000000     0.607570000000     0.591080000000     0.0289935  
H60      H      0.890900000000     0.766470000000     0.561430000000     0.0522862  
H61      H      0.694680000000     0.703650000000     0.458860000000     0.0544728  
H62      H      0.841220000000     0.865390000000     0.588490000000     0.0353079  
H63      H      0.704460000000     0.561330000000     0.481760000000     0.0086905  
H64      H      0.891090000000     0.763580000000     0.472230000000     0.0528053  
H65      H      0.692480000000     0.708930000000     0.575280000000     0.0471242  
H66      H      0.762620000000     0.836920000000     0.471530000000     0.0261238  
H67      H      0.605810000000     0.633940000000     0.430470000000     0.0876102  
H68      H      0.597560000000     0.554160000000     0.444050000000     0.321457   
H69      H      0.847230000000     0.247460000000     0.595340000000     0.042232   
H70      H      0.688110000000     0.338010000000     0.461080000000     0.0247729  
H71      H      0.796250000000     0.112480000000     0.489680000000     0.0283828  
H72      H      0.789330000000     0.216370000000     0.451200000000     0.0422759  
H73      H      0.690940000000     0.223610000000     0.477640000000     0.044104   
H74      H      0.800940000000     0.337220000000     0.583610000000     0.0540862  
H75      H      0.924300000000     0.160610000000     0.588400000000     0.0351688  
H76      H      0.605850000000     0.303170000000     0.476370000000     0.0319371  
H77      H      0.874180000000     0.240760000000     0.465300000000     0.0508186  
H78      H      0.721050000000     0.295010000000     0.598440000000     0.0582347  
H79      H      0.863180000000     0.126470000000     0.448730000000     0.0364294  
H80      H      0.754020000000     0.412250000000     0.535960000000     0.010086   
H81      H      0.910240000000     0.263230000000     0.551390000000     0.0493864  
H82      H      0.652870000000     0.232150000000     0.531940000000     0.0510738  
H83      H      0.836360000000     0.134550000000     0.581730000000     0.029911   
H84      H      0.652610000000     0.397600000000     0.611410000000     0.0874283  
H85      H      0.704200000000     0.464390000000     0.594170000000     0.092205   
H86      H      0.400230000000     0.216150000000     0.560230000000     0.0385744  
H87      H      0.186310000000     0.195000000000     0.472190000000     0.0268533  
H88      H      0.436670000000     0.327990000000     0.447690000000     0.0298621  
H89      H      0.340150000000     0.264450000000     0.425150000000     0.0391667  
H90      H      0.280840000000     0.177890000000     0.418390000000     0.0434887  
H91      H      0.341530000000     0.129520000000     0.558570000000     0.0549769  
H92      H      0.438890000000     0.328240000000     0.573290000000     0.0311833  
H93      H      0.167680000000     0.129120000000     0.434060000000     0.0364107  
H94      H      0.284110000000     0.299470000000     0.464990000000     0.0470435  
H95      H      0.319810000000     0.073150000000     0.515180000000     0.0581868  
H96      H      0.369100000000     0.380030000000     0.443350000000     0.0317995  
H97      H      0.224090000000     0.161710000000     0.561790000000     0.009322   
H98      H      0.330860000000     0.266570000000     0.564840000000     0.0478527  
H99      H      0.285160000000     0.099110000000     0.438950000000     0.0513241  
H100     H      0.472390000000     0.293560000000     0.522670000000     0.0342779  
H101     H      0.222700000000     0.018550000000     0.565340000000     0.0938416  
H102     H      0.188390000000     0.071780000000     0.603760000000     0.0934428  
H103     H      0.194730000000     0.619600000000     0.045340000000     0.0425062  
H104     H      0.225790000000     0.874660000000     0.002310000000     0.0249042  
H105     H      0.336110000000     0.657860000000     0.940160000000     0.0249298  
H106     H      0.335160000000     0.762590000000     0.977620000000     0.0416123  
H107     H      0.244480000000     0.788890000000     0.947700000000     0.0434014  
H108     H      0.156830000000     0.708810000000     0.074990000000     0.0543551  
H109     H      0.279240000000     0.539600000000     0.036590000000     0.030217   
H110     H      0.170960000000     0.877790000000     0.953830000000     0.0341562  
H111     H      0.359820000000     0.730810000000     0.030750000000     0.0499682  
H112     H      0.103570000000     0.707950000000     0.024830000000     0.0585799  
H113     H      0.415510000000     0.679000000000     0.967690000000     0.031289   
H114     H      0.165480000000     0.822530000000     0.081800000000     0.0100772  
H115     H      0.272930000000     0.643110000000     0.074740000000     0.0489069  
H116     H      0.157820000000     0.760980000000     0.948520000000     0.0522196  
H117     H      0.250470000000     0.570380000000     0.983080000000     0.0268054  
H118     H      0.020140000000     0.788630000000     0.059300000000     0.0912262  
H119     H      0.056840000000     0.826800000000     0.107470000000     0.0933526  
H120     H      0.694020000000     0.837010000000     0.073650000000     0.0412533  
H121     H      0.539630000000     0.687930000000     0.983940000000     0.0300029  
H122     H      0.828990000000     0.779920000000     0.966770000000     0.0274055  
H123     H      0.725990000000     0.802780000000     0.926240000000     0.0414795  
H124     H      0.622020000000     0.749420000000     0.935130000000     0.0402859  
H125     H      0.593100000000     0.745040000000     0.057890000000     0.0492783  
H126     H      0.814600000000     0.874940000000     0.080620000000     0.0355031  
H127     H      0.569280000000     0.639250000000     0.938560000000     0.0278485  
H128     H      0.727950000000     0.881410000000     0.950060000000     0.0496009  
H129     H      0.677190000000     0.734810000000     0.077180000000     0.0550599  
H130     H      0.843290000000     0.852660000000     0.934510000000     0.0360453  
H131     H      0.583200000000     0.638860000000     0.073700000000     0.00653563 
H132     H      0.715250000000     0.899640000000     0.034400000000     0.0502803  
H133     H      0.684480000000     0.692090000000     0.944390000000     0.047527   
H134     H      0.807900000000     0.793940000000     0.059530000000     0.0279176  
H135     H      0.724930000000     0.625230000000     0.044490000000     0.0863968  
H136     H      0.672290000000     0.569470000000     0.072840000000     0.0888069  
H137     H      0.740440000000     0.139740000000     0.036310000000     0.0490089  
H138     H      0.752610000000     0.412030000000     0.029010000000     0.0260066  
H139     H      0.820230000000     0.135940000000     0.949980000000     0.031136   
H140     H      0.818470000000     0.251050000000     0.941420000000     0.0420637  
H141     H      0.789250000000     0.348140000000     0.967060000000     0.0432581  
H142     H      0.660180000000     0.225510000000     0.059390000000     0.0541368  
H143     H      0.880800000000     0.196840000000     0.069460000000     0.0305205  
H144     H      0.711070000000     0.435060000000     0.977450000000     0.0319916  
H145     H      0.877800000000     0.267520000000     0.987800000000     0.0489471  
H146     H      0.622140000000     0.253530000000     0.008780000000     0.0586004  
H147     H      0.905040000000     0.171550000000     0.944790000000     0.0335857  
H148     H      0.689350000000     0.337790000000     0.084780000000     0.00807589 
H149     H      0.760280000000     0.199610000000     0.080280000000     0.0432275  
H150     H      0.704570000000     0.326200000000     0.947360000000     0.0486902  
H151     H      0.841880000000     0.117990000000     0.080530000000     0.0349504  
H152     H      0.544460000000     0.296870000000     0.067390000000     0.0923479  
H153     H      0.574020000000     0.359020000000     0.103950000000     0.0904195  
H154     H      0.276570000000     0.178440000000     0.102610000000     0.0421259  
H155     H      0.454150000000     0.293640000000     0.021260000000     0.0253547  
H156     H      0.197440000000     0.178670000000     0.965050000000     0.0289206  
H157     H      0.312320000000     0.142460000000     0.956710000000     0.0415035  
H158     H      0.398610000000     0.213800000000     0.970480000000     0.039983   
H159     H      0.278890000000     0.277090000000     0.083120000000     0.0523718  
H160     H      0.157510000000     0.129880000000     0.093030000000     0.0362734  
H161     H      0.450680000000     0.323060000000     0.963550000000     0.0294015  
H162     H      0.294300000000     0.079570000000     0.997310000000     0.0491927  
H163     H      0.251100000000     0.302090000000     0.028320000000     0.0578027  
H164     H      0.194380000000     0.095390000000     0.949570000000     0.0353947  
H165     H      0.381550000000     0.342300000000     0.080980000000     0.00414775 
H166     H      0.272720000000     0.100470000000     0.079000000000     0.0506146  
H167     H      0.336550000000     0.267770000000     0.952610000000     0.0486616  
H168     H      0.172010000000     0.200960000000     0.059110000000     0.0269662  
H169     H      0.279980000000     0.418620000000     0.034900000000     0.0886375  
H170     H      0.335190000000     0.442890000000     0.078050000000     0.0931749  
N1       N      0.512720000000     0.467520000000     0.878250000000    -0.200612   
N2       N      0.493640000000     0.487600000000     0.648940000000    -0.188912   
N3       N      0.629070000000     0.517980000000     0.872350000000    -0.200691   
N4       N      0.503600000000     0.498690000000     0.146680000000    -0.198502   
N5       N      0.525390000000     0.487230000000     0.381120000000    -0.206859   
N6       N      0.425080000000     0.402460000000     0.161310000000    -0.201944   
N7       N      0.375090000000     0.607800000000     0.502970000000    -0.197262   
N8       N      0.125860000000     0.834730000000     0.500060000000    -0.173494   
N9       N      0.440470000000     0.667110000000     0.442600000000    -0.201196   
N10      N      0.630180000000     0.607710000000     0.518740000000    -0.250086   
N11      N      0.846040000000     0.866730000000     0.514250000000    -0.17645    
N12      N      0.632250000000     0.593540000000     0.436970000000    -0.27227    
N13      N      0.655450000000     0.366940000000     0.526390000000    -0.200021   
N14      N      0.892530000000     0.132990000000     0.520100000000    -0.172973   
N15      N      0.699870000000     0.414660000000     0.598300000000    -0.201566   
N16      N      0.186000000000     0.104690000000     0.505450000000    -0.186974   
N17      N      0.400040000000     0.361900000000     0.510930000000    -0.229054   
N18      N      0.226520000000     0.064410000000     0.579990000000    -0.200637   
N19      N      0.123460000000     0.846160000000     0.017650000000    -0.185869   
N20      N      0.350970000000     0.603720000000     0.000060000000    -0.18915    
N21      N      0.061260000000     0.792220000000     0.081950000000    -0.200652   
N22      N      0.607080000000     0.619240000000     0.004510000000    -0.245629   
N23      N      0.837610000000     0.863120000000     0.008460000000    -0.175505   
N24      N      0.684490000000     0.618530000000     0.067570000000    -0.20117    
N25      N      0.648190000000     0.381220000000     0.026750000000    -0.198366   
N26      N      0.876910000000     0.135770000000     0.011470000000    -0.173676   
N27      N      0.584910000000     0.317130000000     0.086840000000    -0.202858   
N28      N      0.385430000000     0.364800000000     0.010270000000    -0.241322   
N29      N      0.166150000000     0.115720000000     0.019570000000    -0.17513    
N30      N      0.305970000000     0.404160000000     0.063880000000    -0.205886   
O1       O      0.066220000000     0.919460000000     0.977660000000    -0.39771    
O2       O      0.941290000000     0.064890000000     0.974200000000    -0.39367    
O3       O      0.085610000000     0.055400000000     0.978520000000    -0.401999   
O4       O      0.922090000000     0.926560000000     0.972980000000    -0.401479   
O5       O      0.915020000000     0.927460000000     0.049320000000    -0.404912   
O6       O      0.080070000000     0.054350000000     0.054970000000    -0.401526   
O7       O      0.936850000000     0.063990000000     0.050690000000    -0.398436   
O8       O      0.057480000000     0.916380000000     0.053880000000    -0.402147   
O9       O      0.070720000000     0.915740000000     0.467280000000    -0.398082   
O10      O      0.949870000000     0.062990000000     0.477020000000    -0.39733    
O11      O      0.093740000000     0.052180000000     0.470340000000    -0.404377   
O12      O      0.927490000000     0.927170000000     0.474100000000    -0.404398   
O13      O      0.931110000000     0.927680000000     0.550590000000    -0.403494   
O14      O      0.104280000000     0.043570000000     0.545970000000    -0.406147   
O15      O      0.962620000000     0.063480000000     0.553030000000    -0.395431   
O16      O      0.071540000000     0.906910000000     0.543520000000    -0.396768   
O17      O      0.544290000000     0.521320000000     0.944270000000    -0.487402   
O18      O      0.536070000000     0.532700000000     0.074380000000    -0.48558    
O19      O      0.609700000000     0.478830000000     0.010480000000    -0.471792   
O20      O      0.463310000000     0.586490000000     0.000060000000    -0.490405   
O21      O      0.388750000000     0.504820000000     0.012880000000    -0.483553   
O22      O      0.534840000000     0.396930000000     0.024640000000    -0.472826   
O23      O      0.457910000000     0.452370000000     0.080250000000    -0.47543    
O24      O      0.466020000000     0.441240000000     0.948570000000    -0.484292   
O25      O      0.567290000000     0.517590000000     0.453020000000    -0.687862   
O26      O      0.538710000000     0.531640000000     0.582560000000    -0.485348   
O27      O      0.621130000000     0.468580000000     0.531260000000    -0.486928   
O28      O      0.485420000000     0.583970000000     0.507170000000    -0.48593    
O29      O      0.404850000000     0.504770000000     0.512470000000    -0.464778   
O30      O      0.547160000000     0.390100000000     0.510120000000    -0.481026   
O31      O      0.468580000000     0.444730000000     0.578250000000    -0.487605   
O32      O      0.475000000000     0.452460000000     0.447720000000    -0.50331    


