data_structure

_audit_creation_method RASPA-1.0
_audit_creation_date 2023-6-4
_audit_author_name 'Poobodin Mano'

_cell_length_a    19.8373
_cell_length_b    20.7567
_cell_length_c    28.6268
_cell_angle_alpha 89.9989
_cell_angle_beta  89.9989
_cell_angle_gamma 94.7719
_cell_volume      11746.4

_symmetry_cell_setting          triclinic
_symmetry_space_group_name_Hall 'P 1'
_symmetry_space_group_name_H-M  'P 1'
_symmetry_Int_Tables_number     1

_symmetry_equiv_pos_as_xyz 'x,y,z'

loop_
_atom_site_label
_atom_site_type_symbol
_atom_site_fract_x
_atom_site_fract_y
_atom_site_fract_z
_atom_site_charge
C1       C      0.071740000000     0.941230000000     0.028120000000     0.399037   
C2       C      0.885280000000     0.111940000000     0.041460000000     0.400179   
C3       C      0.073800000000     0.123220000000     0.024180000000     0.404588   
C4       C      0.884430000000     0.928860000000     0.044860000000     0.405518   
C5       C      0.121450000000     0.854790000000     0.513620000000     0.397987   
C6       C      0.974530000000     0.057060000000     0.532790000000     0.400515   
C7       C      0.160340000000     0.037440000000     0.520520000000     0.404049   
C8       C      0.935860000000     0.879320000000     0.526230000000     0.405298   
C9       C      0.471250000000     0.535800000000     0.928510000000     0.477445   
C10      C      0.468200000000     0.513000000000     0.105540000000     0.473175   
C11      C      0.568370000000     0.450090000000     0.012960000000     0.46452    
C12      C      0.376860000000     0.599170000000     0.021400000000     0.470268   
C13      C      0.552380000000     0.442760000000     0.434750000000     0.473851   
C14      C      0.546610000000     0.470050000000     0.611300000000     0.47403    
C15      C      0.639150000000     0.371350000000     0.530810000000     0.46984    
C16      C      0.462820000000     0.534680000000     0.513320000000     0.468004   
C17      C      0.483930000000     0.444320000000     0.684290000000     0.0151131  
C18      C      0.507320000000     0.598460000000     0.857570000000     0.0172265  
C19      C      0.420400000000     0.501270000000     0.852640000000     0.0594554  
C20      C      0.547670000000     0.573110000000     0.816470000000    -0.105157   
C21      C      0.505180000000     0.424490000000     0.733090000000    -0.102655   
C22      C      0.432930000000     0.510520000000     0.799860000000    -0.116467   
C23      C      0.539110000000     0.483070000000     0.757280000000     0.0174893  
C24      C      0.508290000000     0.518750000000     0.789970000000     0.0246222  
C25      C      0.586090000000     0.528340000000     0.683010000000     0.0140345  
C26      C      0.603740000000     0.507770000000     0.732880000000    -0.102593   
C27      C      0.435350000000     0.448510000000     0.176200000000     0.0153948  
C28      C      0.606580000000     0.471120000000     0.358950000000     0.0190257  
C29      C      0.490890000000     0.407450000000     0.362920000000     0.0570579  
C30      C      0.581160000000     0.502170000000     0.314540000000    -0.105256   
C31      C      0.488330000000     0.417830000000     0.205990000000    -0.10104    
C32      C      0.504600000000     0.394970000000     0.310660000000    -0.11468    
C33      C      0.523120000000     0.467610000000     0.239250000000     0.0156935  
C34      C      0.535150000000     0.455370000000     0.285580000000     0.0240158  
C35      C      0.498730000000     0.557380000000     0.183860000000     0.0168104  
C36      C      0.551590000000     0.529880000000     0.215460000000    -0.101036   
C37      C      0.182500000000     0.781040000000     0.463720000000     0.0123523  
C38      C      0.380830000000     0.591450000000     0.554900000000     0.013656   
C39      C      0.425150000000     0.636340000000     0.479350000000     0.0560759  
C40      C      0.310970000000     0.615140000000     0.546600000000    -0.102403   
C41      C      0.253950000000     0.759030000000     0.469710000000    -0.0996436  
C42      C      0.356160000000     0.662250000000     0.467750000000    -0.112845   
C43      C      0.260120000000     0.711250000000     0.509870000000     0.0152539  
C44      C      0.310260000000     0.668660000000     0.510060000000     0.0204554  
C45      C      0.151250000000     0.750230000000     0.545380000000     0.0122163  
C46      C      0.219770000000     0.723370000000     0.554090000000    -0.09939    
C47      C      0.691270000000     0.589050000000     0.469970000000    -0.00191575 
C48      C      0.867000000000     0.794270000000     0.567760000000     0.0101355  
C49      C      0.831410000000     0.823250000000     0.488060000000     0.055971   
C50      C      0.883320000000     0.727030000000     0.550960000000    -0.10191    
C51      C      0.740040000000     0.650180000000     0.468070000000    -0.0896141  
C52      C      0.848460000000     0.757830000000     0.468260000000    -0.114572   
C53      C      0.791860000000     0.657150000000     0.507660000000     0.0127497  
C54      C      0.840590000000     0.708120000000     0.507790000000     0.0205165  
C55      C      0.732890000000     0.554990000000     0.543530000000    -0.00402868 
C56      C      0.781300000000     0.614850000000     0.550990000000    -0.0883437  
C57      C      0.757490000000     0.350970000000     0.547480000000     0.0157075  
C58      C      0.867810000000     0.097490000000     0.511830000000     0.0103305  
C59      C      0.937020000000     0.150210000000     0.578860000000     0.0530647  
C60      C      0.837790000000     0.161220000000     0.501880000000    -0.102541   
C61      C      0.789560000000     0.301970000000     0.578800000000    -0.103406   
C62      C      0.903250000000     0.213740000000     0.569700000000    -0.113      
C63      C      0.781810000000     0.236240000000     0.555710000000     0.0176675  
C64      C      0.835580000000     0.201460000000     0.545670000000     0.0218692  
C65      C      0.674700000000     0.261830000000     0.515550000000     0.0142774  
C66      C      0.709070000000     0.212570000000     0.545170000000    -0.102159   
C67      C      0.221470000000     0.133480000000     0.484380000000     0.0112635  
C68      C      0.443120000000     0.287230000000     0.562770000000    -0.000327986
C69      C      0.365990000000     0.367760000000     0.540340000000     0.00236127 
C70      C      0.378190000000     0.248840000000     0.581340000000    -0.092204   
C71      C      0.215100000000     0.199090000000     0.508340000000    -0.101823   
C72      C      0.309180000000     0.318280000000     0.525140000000    -0.0909995  
C73      C      0.265110000000     0.206180000000     0.548630000000     0.0197116  
C74      C      0.316040000000     0.254520000000     0.550440000000     0.0145567  
C75      C      0.263550000000     0.087230000000     0.558960000000     0.0140931  
C76      C      0.257670000000     0.151410000000     0.583980000000    -0.102287   
C77      C      0.164030000000     0.885070000000     0.064480000000     0.0120589  
C78      C      0.257150000000     0.620130000000     0.009110000000     0.0181821  
C79      C      0.342640000000     0.706560000000     0.043190000000     0.0601239  
C80      C      0.218420000000     0.677800000000     0.993500000000    -0.105419   
C81      C      0.160320000000     0.813140000000     0.076230000000    -0.100184   
C82      C      0.279340000000     0.733250000000     0.064740000000    -0.115724   
C83      C      0.172640000000     0.774140000000     0.032620000000     0.0154509  
C84      C      0.220490000000     0.730390000000     0.030580000000     0.0245856  
C85      C      0.127970000000     0.859560000000     0.981750000000     0.0103804  
C86      C      0.126100000000     0.786490000000     0.992010000000    -0.099788   
C87      C      0.560510000000     0.698640000000     0.058640000000    -0.00590328 
C88      C      0.821320000000     0.837550000000     0.006190000000     0.0135526  
C89      C      0.793550000000     0.857900000000     0.089490000000     0.0504658  
C90      C      0.750130000000     0.849930000000     0.990760000000    -0.102784   
C91      C      0.617380000000     0.750270000000     0.070000000000    -0.0881073  
C92      C      0.718880000000     0.864920000000     0.075960000000    -0.112832   
C93      C      0.656910000000     0.775210000000     0.027180000000     0.0121386  
C94      C      0.702140000000     0.828770000000     0.030320000000     0.0209171  
C95      C      0.599270000000     0.678850000000     0.981260000000    -0.0063864  
C96      C      0.656180000000     0.732980000000     0.983510000000    -0.087551   
C97      C      0.685690000000     0.429320000000     0.031810000000     0.01757    
C98      C      0.775810000000     0.143560000000     0.014760000000     0.0118279  
C99      C      0.828770000000     0.201370000000     0.083580000000     0.0511122  
C100     C      0.754550000000     0.205950000000     0.993070000000    -0.101381   
C101     C      0.713570000000     0.369280000000     0.053140000000    -0.10123    
C102     C      0.806990000000     0.266630000000     0.065000000000    -0.110873   
C103     C      0.710400000000     0.310660000000     0.020440000000     0.0153789  
C104     C      0.751210000000     0.260800000000     0.028160000000     0.0193788  
C105     C      0.623780000000     0.365910000000     0.970050000000     0.0149408  
C106     C      0.651230000000     0.302520000000     0.985900000000    -0.0998295  
C107     C      0.180430000000     0.180720000000     0.051770000000     0.0113146  
C108     C      0.305280000000     0.402870000000     0.979220000000     0.00142802 
C109     C      0.402930000000     0.341320000000     0.995850000000     0.00318459 
C110     C      0.276130000000     0.338340000000     0.956890000000    -0.0933455  
C111     C      0.247440000000     0.176240000000     0.025480000000    -0.101701   
C112     C      0.359670000000     0.280610000000     0.010210000000    -0.0919634  
C113     C      0.249520000000     0.223820000000     0.985210000000     0.0194041  
C114     C      0.291860000000     0.278950000000     0.985230000000     0.0151435  
C115     C      0.124780000000     0.214630000000     0.977200000000     0.0133567  
C116     C      0.191480000000     0.211720000000     0.951070000000    -0.102118   
Cu1      Cu     0.970260000000     0.024430000000     0.992090000000     0.84358    
Cu2      Cu     0.987130000000     0.028850000000     0.077390000000     0.841234   
Cu3      Cu     0.043800000000     0.960830000000     0.480410000000     0.841522   
Cu4      Cu     0.054520000000     0.953050000000     0.565970000000     0.841324   
Cu5      Cu     0.520210000000     0.578240000000     0.021320000000     1.18045    
Cu6      Cu     0.425290000000     0.471490000000     0.012930000000     1.19038    
Cu7      Cu     0.603910000000     0.504170000000     0.521070000000     1.17472    
Cu8      Cu     0.500670000000     0.404670000000     0.525390000000     1.19938    
H1       H      0.462430000000     0.399730000000     0.752660000000     0.0421674  
H2       H      0.542930000000     0.626250000000     0.881530000000     0.0316116  
H3       H      0.559610000000     0.573430000000     0.685020000000     0.0282208  
H4       H      0.632150000000     0.548760000000     0.750930000000     0.0419919  
H5       H      0.594640000000     0.554900000000     0.830760000000     0.0488837  
H6       H      0.404730000000     0.470880000000     0.780450000000     0.0478127  
H7       H      0.462360000000     0.400240000000     0.665780000000     0.0325468  
H8       H      0.472100000000     0.632770000000     0.843660000000     0.0266116  
H9       H      0.638300000000     0.468330000000     0.730930000000     0.0485992  
H10      H      0.411750000000     0.555490000000     0.787320000000     0.053958   
H11      H      0.634140000000     0.540080000000     0.663630000000     0.0340573  
H12      H      0.427680000000     0.450120000000     0.861600000000     0.0257228  
H13      H      0.542350000000     0.387520000000     0.729430000000     0.0496938  
H14      H      0.561860000000     0.614010000000     0.792380000000     0.0434752  
H15      H      0.442860000000     0.477430000000     0.687490000000     0.0250362  
H16      H      0.463750000000     0.374120000000     0.222720000000     0.0426731  
H17      H      0.640570000000     0.433380000000     0.349020000000     0.025487   
H18      H      0.458950000000     0.575730000000     0.206510000000     0.0260215  
H19      H      0.568050000000     0.568920000000     0.240390000000     0.0428824  
H20      H      0.626890000000     0.519340000000     0.294180000000     0.0433803  
H21      H      0.540660000000     0.356960000000     0.307690000000     0.0516705  
H22      H      0.413330000000     0.411970000000     0.150880000000     0.0353458  
H23      H      0.637690000000     0.508690000000     0.378900000000     0.0320516  
H24      H      0.596220000000     0.519320000000     0.194170000000     0.0513131  
H25      H      0.456050000000     0.375190000000     0.295120000000     0.0489512  
H26      H      0.522730000000     0.599420000000     0.164230000000     0.033051   
H27      H      0.477510000000     0.359780000000     0.379740000000     0.0280927  
H28      H      0.527540000000     0.400550000000     0.182400000000     0.0506814  
H29      H      0.553230000000     0.544450000000     0.324280000000     0.0539872  
H30      H      0.394010000000     0.462300000000     0.199480000000     0.0284003  
H31      H      0.266400000000     0.737380000000     0.435660000000     0.0428787  
H32      H      0.411550000000     0.629090000000     0.575200000000     0.0268245  
H33      H      0.114910000000     0.709620000000     0.533800000000     0.0248854  
H34      H      0.207120000000     0.678480000000     0.574220000000     0.0415317  
H35      H      0.294930000000     0.630910000000     0.581490000000     0.0422077  
H36      H      0.368230000000     0.710090000000     0.450970000000     0.0479774  
H37      H      0.184670000000     0.821190000000     0.437900000000     0.035632   
H38      H      0.375470000000     0.547490000000     0.577340000000     0.0235595  
H39      H      0.251020000000     0.757770000000     0.576580000000     0.050909   
H40      H      0.327650000000     0.629800000000     0.442310000000     0.0550593  
H41      H      0.131860000000     0.767940000000     0.579050000000     0.0347514  
H42      H      0.456990000000     0.675520000000     0.497290000000     0.0249286  
H43      H      0.290030000000     0.802050000000     0.475970000000     0.0511561  
H44      H      0.275640000000     0.573760000000     0.535190000000     0.0486767  
H45      H      0.149210000000     0.740130000000     0.449140000000     0.0278462  
H46      H      0.766390000000     0.649050000000     0.433870000000     0.040286   
H47      H      0.813320000000     0.791630000000     0.579430000000     0.0277375  
H48      H      0.759040000000     0.517450000000     0.524470000000     0.0299767  
H49      H      0.830170000000     0.597420000000     0.562380000000     0.0389909  
H50      H      0.876840000000     0.693340000000     0.580850000000     0.0421432  
H51      H      0.817010000000     0.745510000000     0.437080000000     0.0488726  
H52      H      0.644740000000     0.598260000000     0.450320000000     0.0303861  
H53      H      0.899150000000     0.808410000000     0.598490000000     0.0360455  
H54      H      0.761050000000     0.644150000000     0.579490000000     0.0472987  
H55      H      0.901990000000     0.761320000000     0.456240000000     0.0609838  
H56      H      0.717560000000     0.534700000000     0.578170000000     0.0306646  
H57      H      0.778430000000     0.816590000000     0.501230000000     0.0204487  
H58      H      0.709730000000     0.692920000000     0.468850000000     0.0478437  
H59      H      0.937660000000     0.728890000000     0.541070000000     0.0517928  
H60      H      0.714400000000     0.548340000000     0.452450000000     0.0282022  
H61      H      0.843010000000     0.320490000000     0.584360000000     0.04235    
H62      H      0.830790000000     0.066690000000     0.533030000000     0.0291492  
H63      H      0.695500000000     0.260740000000     0.479510000000     0.0267261  
H64      H      0.703080000000     0.164280000000     0.528510000000     0.0435996  
H65      H      0.788070000000     0.151020000000     0.484690000000     0.0444926  
H66      H      0.897330000000     0.236980000000     0.604310000000     0.0471988  
H67      H      0.759690000000     0.397920000000     0.566390000000     0.0317061  
H68      H      0.873280000000     0.072020000000     0.478010000000     0.0377964  
H69      H      0.681630000000     0.206970000000     0.578990000000     0.0503319  
H70      H      0.935760000000     0.247440000000     0.547300000000     0.053305   
H71      H      0.619750000000     0.246510000000     0.513290000000     0.0347146  
H72      H      0.910230000000     0.124840000000     0.608580000000     0.0256778  
H73      H      0.763860000000     0.299370000000     0.613340000000     0.049535   
H74      H      0.870510000000     0.188810000000     0.475990000000     0.0528496  
H75      H      0.788410000000     0.358400000000     0.515200000000     0.0274417  
H76      H      0.222680000000     0.237650000000     0.481640000000     0.0441402  
H77      H      0.473590000000     0.306890000000     0.592820000000     0.0257329  
H78      H      0.315870000000     0.086700000000     0.545040000000     0.0265335  
H79      H      0.293700000000     0.156450000000     0.613590000000     0.0427471  
H80      H      0.366590000000     0.266540000000     0.616860000000     0.0421804  
H81      H      0.259570000000     0.336770000000     0.533610000000     0.0398333  
H82      H      0.182540000000     0.126680000000     0.456490000000     0.0370116  
H83      H      0.474300000000     0.253540000000     0.543920000000     0.0308197  
H84      H      0.206460000000     0.150790000000     0.599860000000     0.0558145  
H85      H      0.312830000000     0.310810000000     0.486780000000     0.0489864  
H86      H      0.255490000000     0.046700000000     0.584270000000     0.0349834  
H87      H      0.361590000000     0.378900000000     0.578250000000     0.027196   
H88      H      0.162960000000     0.200640000000     0.522300000000     0.0534902  
H89      H      0.390270000000     0.197700000000     0.584450000000     0.0419851  
H90      H      0.272130000000     0.134310000000     0.467590000000     0.0295452  
H91      H      0.195060000000     0.805120000000     0.105570000000     0.0428488  
H92      H      0.230060000000     0.595240000000     0.038910000000     0.0294112  
H93      H      0.178180000000     0.875530000000     0.966510000000     0.029238   
H94      H      0.140270000000     0.762090000000     0.959380000000     0.0428094  
H95      H      0.165240000000     0.659150000000     0.986390000000     0.044124   
H96      H      0.263640000000     0.704050000000     0.096040000000     0.052385   
H97      H      0.152320000000     0.912590000000     0.096350000000     0.0362342  
H98      H      0.257210000000     0.584680000000     0.979960000000     0.0324137  
H99      H      0.073630000000     0.767880000000     0.001220000000     0.0500536  
H100     H      0.293550000000     0.783650000000     0.076540000000     0.0490938  
H101     H      0.088830000000     0.867630000000     0.955070000000     0.0354726  
H102     H      0.380930000000     0.705190000000     0.071530000000     0.0235376  
H103     H      0.108620000000     0.798030000000     0.089290000000     0.0535378  
H104     H      0.240910000000     0.698210000000     0.960580000000     0.0533543  
H105     H      0.216930000000     0.900860000000     0.054220000000     0.0269898  
H106     H      0.593210000000     0.790360000000     0.087310000000     0.039974   
H107     H      0.822780000000     0.785190000000     0.014240000000     0.0258838  
H108     H      0.552830000000     0.697490000000     0.966280000000     0.031078   
H109     H      0.649940000000     0.762810000000     0.951850000000     0.039549   
H110     H      0.739790000000     0.826180000000     0.956680000000     0.0429421  
H111     H      0.685610000000     0.848840000000     0.105520000000     0.0476418  
H112     H      0.542570000000     0.675300000000     0.091700000000     0.0311891  
H113     H      0.857300000000     0.848210000000     0.976880000000     0.0351769  
H114     H      0.705420000000     0.711110000000     0.981290000000     0.045738   
H115     H      0.711400000000     0.916870000000     0.070070000000     0.0550893  
H116     H      0.615730000000     0.641100000000     0.957330000000     0.0300934  
H117     H      0.797680000000     0.805840000000     0.097260000000     0.0220928  
H118     H      0.652920000000     0.729820000000     0.094950000000     0.0475451  
H119     H      0.747650000000     0.902560000000     0.984490000000     0.0552117  
H120     H      0.517190000000     0.721820000000     0.043030000000     0.0343478  
H121     H      0.766580000000     0.384550000000     0.063160000000     0.0429217  
H122     H      0.733140000000     0.122390000000     0.036630000000     0.0258141  
H123     H      0.658890000000     0.388250000000     0.943140000000     0.0242613  
H124     H      0.666160000000     0.278900000000     0.953180000000     0.0415524  
H125     H      0.704840000000     0.192150000000     0.976730000000     0.0420378  
H126     H      0.790270000000     0.293070000000     0.096130000000     0.0470098  
H127     H      0.680610000000     0.465710000000     0.059900000000     0.0309273  
H128     H      0.782690000000     0.108280000000     0.986260000000     0.0344988  
H129     H      0.609590000000     0.271410000000     0.002430000000     0.0469173  
H130     H      0.850930000000     0.295520000000     0.049030000000     0.0545773  
H131     H      0.574170000000     0.356000000000     0.952310000000     0.0232535  
H132     H      0.788070000000     0.180580000000     0.107220000000     0.0230041  
H133     H      0.684490000000     0.355560000000     0.085330000000     0.0490249  
H134     H      0.790980000000     0.221980000000     0.965080000000     0.0522954  
H135     H      0.722440000000     0.450730000000     0.005570000000     0.0281337  
H136     H      0.289980000000     0.184470000000     0.050430000000     0.0430645  
H137     H      0.316920000000     0.438890000000     0.951260000000     0.0307577  
H138     H      0.120910000000     0.265210000000     0.989080000000     0.0270464  
H139     H      0.194070000000     0.245090000000     0.920740000000     0.0426624  
H140     H      0.297560000000     0.333960000000     0.921260000000     0.0441839  
H141     H      0.386180000000     0.237330000000     0.000620000000     0.0394265  
H142     H      0.176910000000     0.143970000000     0.080120000000     0.0359392  
H143     H      0.265880000000     0.421930000000     0.001730000000     0.0306671  
H144     H      0.193280000000     0.162380000000     0.936250000000     0.0532319  
H145     H      0.351640000000     0.281420000000     0.048650000000     0.0481903  
H146     H      0.081890000000     0.202230000000     0.952950000000     0.0352273  
H147     H      0.413720000000     0.340850000000     0.957660000000     0.0282454  
H148     H      0.249340000000     0.126490000000     0.011410000000     0.0510926  
H149     H      0.220740000000     0.341460000000     0.953340000000     0.0427238  
H150     H      0.180660000000     0.229350000000     0.068140000000     0.0308169  
N1       N      0.467220000000     0.544740000000     0.881150000000    -0.192037   
N2       N      0.541420000000     0.478150000000     0.658600000000    -0.188801   
N3       N      0.550160000000     0.440610000000     0.386910000000    -0.191329   
N4       N      0.467000000000     0.506730000000     0.153090000000    -0.188304   
N5       N      0.416370000000     0.579900000000     0.511060000000    -0.190487   
N6       N      0.155020000000     0.800040000000     0.508790000000    -0.173786   
N7       N      0.877080000000     0.839660000000     0.528260000000    -0.178255   
N8       N      0.672990000000     0.571900000000     0.518100000000    -0.23129    
N9       N      0.932460000000     0.105840000000     0.537810000000    -0.175957   
N10      N      0.687490000000     0.328160000000     0.534160000000    -0.187943   
N11      N      0.429770000000     0.339730000000     0.530450000000    -0.236223   
N12      N      0.215200000000     0.081660000000     0.519790000000    -0.175302   
N13      N      0.326950000000     0.640910000000     0.023780000000    -0.191116   
N14      N      0.118630000000     0.896510000000     0.025040000000    -0.173817   
N15      N      0.838030000000     0.876110000000     0.048620000000    -0.177545   
N16      N      0.584650000000     0.650020000000     0.027080000000    -0.230519   
N17      N      0.836070000000     0.154840000000     0.044680000000    -0.175374   
N18      N      0.620790000000     0.411470000000     0.009000000000    -0.188558   
N19      N      0.365660000000     0.396810000000     0.008250000000    -0.235152   
N20      N      0.123490000000     0.171960000000     0.018520000000    -0.175448   
O1       O      0.043410000000     0.960870000000     0.990960000000    -0.397597   
O2       O      0.897750000000     0.087000000000     0.001650000000    -0.397941   
O3       O      0.041000000000     0.100410000000     0.988420000000    -0.402978   
O4       O      0.901510000000     0.949570000000     0.004010000000    -0.406708   
O5       O      0.912120000000     0.955850000000     0.081160000000    -0.394424   
O6       O      0.061060000000     0.100130000000     0.065080000000    -0.400234   
O7       O      0.916840000000     0.095120000000     0.078070000000    -0.39256    
O8       O      0.056180000000     0.963060000000     0.068300000000    -0.398273   
O9       O      0.104160000000     0.885790000000     0.477240000000    -0.396457   
O10      O      0.983910000000     0.033760000000     0.492020000000    -0.397368   
O11      O      0.126620000000     0.025020000000     0.482890000000    -0.400343   
O12      O      0.960810000000     0.897800000000     0.486670000000    -0.398514   
O13      O      0.966480000000     0.896380000000     0.564290000000    -0.40247    
O14      O      0.141730000000     0.010350000000     0.559210000000    -0.401287   
O15      O      0.001580000000     0.033040000000     0.568940000000    -0.394196   
O16      O      0.105400000000     0.873550000000     0.554560000000    -0.398817   
O17      O      0.505830000000     0.576560000000     0.953770000000    -0.483447   
O18      O      0.507840000000     0.556660000000     0.086650000000    -0.481447   
O19      O      0.581890000000     0.510970000000     0.015990000000    -0.477855   
O20      O      0.438090000000     0.621200000000     0.026550000000    -0.48312    
O21      O      0.362280000000     0.539030000000     0.014150000000    -0.473836   
O22      O      0.506600000000     0.426290000000     0.014540000000    -0.495654   
O23      O      0.430100000000     0.475010000000     0.080360000000    -0.479773   
O24      O      0.437960000000     0.487910000000     0.947340000000    -0.488679   
O25      O      0.597020000000     0.480000000000     0.455370000000    -0.482117   
O26      O      0.588500000000     0.506420000000     0.587740000000    -0.479184   
O27      O      0.656780000000     0.431520000000     0.532110000000    -0.486095   
O28      O      0.525580000000     0.553790000000     0.513590000000    -0.471128   
O29      O      0.443950000000     0.474290000000     0.516870000000    -0.496074   
O30      O      0.577150000000     0.351660000000     0.525630000000    -0.482397   
O31      O      0.508520000000     0.426740000000     0.590820000000    -0.494383   
O32      O      0.507940000000     0.409470000000     0.458410000000    -0.476539   
S1       S      0.342710000000     0.513550000000     0.864530000000    -0.0352909  
S2       S      0.426100000000     0.449530000000     0.368710000000    -0.0222105  
S3       S      0.462850000000     0.619820000000     0.430890000000    -0.0280759  
S4       S      0.831400000000     0.878650000000     0.448110000000    -0.0228214  
S5       S      0.014780000000     0.169150000000     0.594870000000    -0.028234   
S6       S      0.365110000000     0.442460000000     0.509930000000     0.0897371  
S7       S      0.375390000000     0.754470000000     0.003040000000    -0.0297457  
S8       S      0.812000000000     0.897280000000     0.137320000000    -0.017577   
S9       S      0.896680000000     0.216170000000     0.114850000000    -0.0179361  
S10      S      0.482270000000     0.349230000000     0.024680000000     0.0803813  


