data_structure

_audit_creation_method RASPA-1.0
_audit_creation_date 2023-5-19
_audit_author_name 'Poobodin Mano'

_cell_length_a    28.8201
_cell_length_b    29.0136
_cell_length_c    29.7363
_cell_angle_alpha 89.9998
_cell_angle_beta  89.9998
_cell_angle_gamma 89.9998
_cell_volume      24864.7

_symmetry_cell_setting          triclinic
_symmetry_space_group_name_Hall 'P 1'
_symmetry_space_group_name_H-M  'P 1'
_symmetry_Int_Tables_number     1

_symmetry_equiv_pos_as_xyz 'x,y,z'

loop_
_atom_site_label
_atom_site_type_symbol
_atom_site_fract_x
_atom_site_fract_y
_atom_site_fract_z
_atom_site_charge
C1       C      0.063430000000     0.116240000000     0.478400000000     0.40218    
C2       C      0.015440000000     0.939200000000     0.485390000000     0.400683   
C3       C      0.124730000000     0.002570000000     0.457770000000     0.401365   
C4       C      0.954270000000     0.053260000000     0.506010000000     0.401364   
C5       C      0.999520000000     0.513670000000     0.440860000000     0.400194   
C6       C      0.985780000000     0.525400000000     0.619020000000     0.400971   
C7       C      0.994970000000     0.428010000000     0.537090000000     0.402036   
C8       C      0.991060000000     0.610800000000     0.523130000000     0.401179   
C9       C      0.527160000000     0.030860000000     0.572360000000     0.400827   
C10      C      0.554640000000     0.034660000000     0.395350000000     0.401638   
C11      C      0.630580000000     0.046220000000     0.498560000000     0.400644   
C12      C      0.450310000000     0.019040000000     0.469200000000     0.400337   
C13      C      0.517510000000     0.002810000000     0.073070000000     0.400947   
C14      C      0.504310000000     0.000840000000     0.894550000000     0.400956   
C15      C      0.523980000000     0.092770000000     0.981790000000     0.40023    
C16      C      0.498490000000     0.911160000000     0.987100000000     0.400605   
C17      C      0.028110000000     0.522350000000     0.116280000000     0.400673   
C18      C      0.017570000000     0.502200000000     0.938660000000     0.400847   
C19      C      0.113730000000     0.502140000000     0.023800000000     0.401515   
C20      C      0.930360000000     0.521960000000     0.031260000000     0.400958   
C21      C      0.437250000000     0.467020000000     0.000260000000     0.402456   
C22      C      0.601350000000     0.541070000000     0.039310000000     0.401835   
C23      C      0.558540000000     0.420970000000     0.014570000000     0.401328   
C24      C      0.479660000000     0.586630000000     0.025560000000     0.401539   
C25      C      0.666440000000     0.550640000000     0.092890000000     0.012747   
C26      C      0.860050000000     0.563870000000     0.007260000000     0.0116137  
C27      C      0.853830000000     0.490110000000     0.051950000000     0.0123239  
C28      C      0.819680000000     0.584400000000     0.033850000000    -0.101452   
C29      C      0.711500000000     0.523930000000     0.084840000000    -0.100826   
C30      C      0.814250000000     0.510600000000     0.080050000000    -0.102053   
C31      C      0.741560000000     0.548460000000     0.050260000000     0.0171709  
C32      C      0.788820000000     0.546760000000     0.052740000000     0.0188187  
C33      C      0.670500000000     0.587110000000     0.017120000000     0.0130173  
C34      C      0.717080000000     0.563860000000     0.007300000000    -0.10079    
C35      C      0.183330000000     0.457250000000     0.044270000000     0.0128952  
C36      C      0.370620000000     0.461400000000     0.948310000000     0.0122557  
C37      C      0.367540000000     0.422470000000     0.022940000000     0.0140839  
C38      C      0.328750000000     0.491800000000     0.959850000000    -0.100766   
C39      C      0.219920000000     0.436060000000     0.013570000000    -0.101924   
C40      C      0.324300000000     0.449650000000     0.036420000000    -0.100949   
C41      C      0.251850000000     0.473070000000     0.995260000000     0.0191377  
C42      C      0.298870000000     0.468460000000     0.995350000000     0.0173192  
C43      C      0.190920000000     0.533450000000     0.004070000000     0.0123272  
C44      C      0.227480000000     0.512920000000     0.972220000000    -0.102088   
C45      C      0.529660000000     0.835730000000     0.009800000000     0.0132308  
C46      C      0.435550000000     0.651020000000     0.990980000000     0.013575   
C47      C      0.463350000000     0.656400000000     0.070380000000     0.0128223  
C48      C      0.457680000000     0.697490000000     0.979280000000    -0.100434   
C49      C      0.509360000000     0.799750000000     0.041880000000    -0.102476   
C50      C      0.490490000000     0.700550000000     0.060240000000    -0.100676   
C51      C      0.472150000000     0.772810000000     0.017520000000     0.0190508  
C52      C      0.468780000000     0.726110000000     0.020880000000     0.0171114  
C53      C      0.453320000000     0.841470000000     0.968390000000     0.0114897  
C54      C      0.433880000000     0.801740000000     0.996690000000    -0.10118    
C55      C      0.494460000000     0.170060000000     0.000170000000     0.0131158  
C56      C      0.596630000000     0.357940000000     0.970830000000     0.0119116  
C57      C      0.576930000000     0.346670000000     0.051260000000     0.0141392  
C58      C      0.568370000000     0.315090000000     0.957300000000    -0.100223   
C59      C      0.516570000000     0.211570000000     0.023640000000    -0.10205    
C60      C      0.543190000000     0.307620000000     0.041100000000    -0.100364   
C61      C      0.547870000000     0.237870000000     0.991460000000     0.0172986  
C62      C      0.556150000000     0.283920000000     0.997180000000     0.0166395  
C63      C      0.574440000000     0.159350000000     0.965290000000     0.0123016  
C64      C      0.569010000000     0.210640000000     0.952870000000    -0.102055   
C65      C      0.503730000000     0.070130000000     0.642580000000     0.0118252  
C66      C      0.534860000000     0.975830000000     0.820740000000     0.0120626  
C67      C      0.459280000000     0.019420000000     0.826070000000     0.0117864  
C68      C      0.548990000000     0.004710000000     0.780100000000    -0.10139    
C69      C      0.474430000000     0.055000000000     0.683240000000    -0.102245   
C70      C      0.472840000000     0.049350000000     0.785550000000    -0.101964   
C71      C      0.500920000000     0.019700000000     0.710630000000     0.0189759  
C72      C      0.506510000000     0.023160000000     0.755990000000     0.0185478  
C73      C      0.547000000000     0.994240000000     0.644430000000     0.0122786  
C74      C      0.517640000000     0.978480000000     0.684100000000    -0.101766   
C75      C      0.558390000000     0.977390000000     0.141660000000     0.0122829  
C76      C      0.547000000000     0.076330000000     0.323180000000     0.0127396  
C77      C      0.585790000000     0.998980000000     0.325660000000     0.0122113  
C78      C      0.516160000000     0.061240000000     0.284000000000    -0.101263   
C79      C      0.576250000000     0.004040000000     0.182500000000    -0.101545   
C80      C      0.558300000000     0.983200000000     0.284360000000    -0.100795   
C81      C      0.536680000000     0.021800000000     0.211420000000     0.0184757  
C82      C      0.540220000000     0.023820000000     0.257100000000     0.0175436  
C83      C      0.481420000000     0.018120000000     0.146800000000     0.0129622  
C84      C      0.498940000000     0.047380000000     0.186150000000    -0.10191    
C85      C      0.941440000000     0.510760000000     0.689230000000     0.0110042  
C86      C      0.042910000000     0.529480000000     0.864100000000     0.0130802  
C87      C      0.994730000000     0.457300000000     0.871070000000     0.0113992  
C88      C      0.012470000000     0.546520000000     0.825800000000    -0.101681   
C89      C      0.956030000000     0.478680000000     0.728120000000    -0.101571   
C90      C      0.964650000000     0.472510000000     0.830750000000    -0.101833   
C91      C      0.993940000000     0.501450000000     0.755690000000     0.0182621  
C92      C      0.991480000000     0.505850000000     0.801240000000     0.0188321  
C93      C      0.019180000000     0.550390000000     0.691640000000     0.0129518  
C94      C      0.035340000000     0.518080000000     0.728790000000    -0.101283   
C95      C      0.020700000000     0.571290000000     0.183840000000     0.0129284  
C96      C      0.041470000000     0.487980000000     0.372800000000     0.0116053  
C97      C      0.963650000000     0.527460000000     0.366750000000     0.0125325  
C98      C      0.058580000000     0.514270000000     0.331360000000    -0.101215   
C99      C      0.993700000000     0.562100000000     0.227350000000    -0.101459   
C100     C      0.981000000000     0.556680000000     0.327260000000    -0.102066   
C101     C      0.019460000000     0.527750000000     0.256600000000     0.0180207  
C102     C      0.018440000000     0.530500000000     0.302360000000     0.0184362  
C103     C      0.058350000000     0.493230000000     0.188410000000     0.0119841  
C104     C      0.034350000000     0.483610000000     0.233270000000    -0.10077    
C105     C      0.375320000000     0.049840000000     0.442760000000     0.0120224  
C106     C      0.196160000000     0.958350000000     0.474100000000     0.0129136  
C107     C      0.187640000000     0.000840000000     0.401190000000     0.0128809  
C108     C      0.245220000000     0.977240000000     0.480630000000    -0.100595   
C109     C      0.339860000000     0.031490000000     0.408610000000    -0.102337   
C110     C      0.235450000000     0.023270000000     0.407030000000    -0.101388   
C111     C      0.313290000000     0.992290000000     0.430050000000     0.0188327  
C112     C      0.266480000000     0.993780000000     0.436660000000     0.0183001  
C113     C      0.380560000000     0.970780000000     0.478850000000     0.0113768  
C114     C      0.343660000000     0.953090000000     0.446210000000    -0.10149    
C115     C      0.700710000000     0.094060000000     0.489460000000     0.0112561  
C116     C      0.892820000000     0.058190000000     0.563740000000     0.0133393  
C117     C      0.883780000000     0.098820000000     0.489830000000     0.0125896  
C118     C      0.843710000000     0.038370000000     0.560380000000    -0.101536   
C119     C      0.737100000000     0.111940000000     0.522570000000    -0.101423   
C120     C      0.833200000000     0.083230000000     0.486200000000    -0.100765   
C121     C      0.766750000000     0.072680000000     0.539800000000     0.0185787  
C122     C      0.813110000000     0.068860000000     0.531390000000     0.0186525  
C123     C      0.704790000000     0.015470000000     0.526830000000     0.0121048  
C124     C      0.739220000000     0.034360000000     0.561620000000    -0.102301   
C125     C      0.032870000000     0.685050000000     0.528610000000     0.012874   
C126     C      0.980430000000     0.870740000000     0.449590000000     0.0120522  
C127     C      0.021520000000     0.865090000000     0.525210000000     0.0131772  
C128     C      0.962070000000     0.822680000000     0.462740000000    -0.102058   
C129     C      0.042850000000     0.717400000000     0.489480000000    -0.101599   
C130     C      0.038330000000     0.818090000000     0.508720000000    -0.101787   
C131     C      0.000130000000     0.746280000000     0.480030000000     0.0178561  
C132     C      0.000280000000     0.793220000000     0.483180000000     0.0176531  
C133     C      0.948000000000     0.683530000000     0.508170000000     0.0107886  
C134     C      0.956730000000     0.718440000000     0.469990000000    -0.101305   
C135     C      0.055440000000     0.192220000000     0.441400000000     0.0120603  
C136     C      0.033900000000     0.358240000000     0.566550000000     0.0141686  
C137     C      0.961180000000     0.351140000000     0.521190000000     0.0119401  
C138     C      0.059670000000     0.325290000000     0.535440000000    -0.101382   
C139     C      0.017940000000     0.223680000000     0.461370000000    -0.100575   
C140     C      0.984830000000     0.317180000000     0.488770000000    -0.100938   
C141     C      0.036800000000     0.248550000000     0.502610000000     0.0170395  
C142     C      0.025860000000     0.293450000000     0.511350000000     0.0179584  
C143     C      0.096170000000     0.186040000000     0.514900000000     0.013404   
C144     C      0.061000000000     0.218120000000     0.537320000000    -0.100989   
Cu1      Cu     0.051140000000     0.025750000000     0.521760000000     0.842942   
Cu2      Cu     0.027680000000     0.029710000000     0.441910000000     0.838338   
Cu3      Cu     0.035340000000     0.520420000000     0.533270000000     0.84346    
Cu4      Cu     0.950090000000     0.518230000000     0.526630000000     0.834735   
Cu5      Cu     0.547210000000     0.990620000000     0.484340000000     0.840817   
Cu6      Cu     0.533760000000     0.074720000000     0.483260000000     0.840127   
Cu7      Cu     0.553350000000     0.995690000000     0.981080000000     0.839443   
Cu8      Cu     0.468800000000     0.008180000000     0.986540000000     0.840395   
Cu9      Cu     0.017750000000     0.470180000000     0.032680000000     0.837759   
Cu10     Cu     0.026440000000     0.554140000000     0.022380000000     0.841484   
Cu11     Cu     0.526300000000     0.510490000000     0.979310000000     0.833015   
Cu12     Cu     0.512250000000     0.497470000000     0.060240000000     0.84697    
H1       H      0.729430000000     0.521330000000     0.117840000000     0.0428225  
H2       H      0.846750000000     0.549420000000     0.975100000000     0.0268917  
H3       H      0.676960000000     0.621860000000     0.031630000000     0.0253886  
H4       H      0.737780000000     0.587350000000     0.986000000000     0.0431078  
H5       H      0.801430000000     0.610100000000     0.012850000000     0.0428321  
H6       H      0.791500000000     0.481470000000     0.090070000000     0.0432292  
H7       H      0.644270000000     0.530500000000     0.116320000000     0.0356772  
H8       H      0.884260000000     0.592360000000     0.998650000000     0.035856   
H9       H      0.710460000000     0.532600000000     0.986670000000     0.0535391  
H10      H      0.828470000000     0.526690000000     0.111050000000     0.0499407  
H11      H      0.651500000000     0.592480000000     0.985010000000     0.0347197  
H12      H      0.839310000000     0.468900000000     0.024140000000     0.0292613  
H13      H      0.703350000000     0.488600000000     0.072690000000     0.051675   
H14      H      0.834160000000     0.604080000000     0.062710000000     0.0514521  
H15      H      0.874040000000     0.466860000000     0.074350000000     0.0351866  
H16      H      0.674360000000     0.583990000000     0.109700000000     0.0266518  
H17      H      0.237880000000     0.407680000000     0.031320000000     0.0430202  
H18      H      0.358600000000     0.429540000000     0.931050000000     0.0270689  
H19      H      0.208370000000     0.551520000000     0.032400000000     0.0292248  
H20      H      0.251740000000     0.541140000000     0.963050000000     0.0430712  
H21      H      0.309030000000     0.497430000000     0.928190000000     0.0427612  
H22      H      0.302740000000     0.427720000000     0.058530000000     0.0431203  
H23      H      0.158130000000     0.429870000000     0.053640000000     0.0348726  
H24      H      0.393340000000     0.480160000000     0.924280000000     0.0352216  
H25      H      0.210460000000     0.500320000000     0.941010000000     0.0499966  
H26      H      0.335330000000     0.479540000000     0.057230000000     0.0547586  
H27      H      0.170740000000     0.559500000000     0.984790000000     0.034292   
H28      H      0.356700000000     0.389270000000     0.007460000000     0.0249925  
H29      H      0.201990000000     0.419700000000     0.984560000000     0.0527606  
H30      H      0.340850000000     0.525700000000     0.972720000000     0.0511807  
H31      H      0.388050000000     0.413680000000     0.053430000000     0.0332852  
H32      H      0.200120000000     0.469190000000     0.075870000000     0.0261425  
H33      H      0.538450000000     0.777480000000     0.053230000000     0.0433429  
H34      H      0.398670000000     0.656760000000     0.000480000000     0.0248486  
H35      H      0.465680000000     0.827570000000     0.935660000000     0.026572   
H36      H      0.409200000000     0.781580000000     0.976000000000     0.0428989  
H37      H      0.434690000000     0.715420000000     0.955120000000     0.0429017  
H38      H      0.490050000000     0.722120000000     0.091160000000     0.043141   
H39      H      0.555130000000     0.856570000000     0.029240000000     0.034043   
H40      H      0.435340000000     0.628680000000     0.960590000000     0.0330429  
H41      H      0.413150000000     0.816690000000     0.024640000000     0.0513614  
H42      H      0.527080000000     0.691750000000     0.052020000000     0.0512827  
H43      H      0.424510000000     0.865840000000     0.961060000000     0.0349522  
H44      H      0.428000000000     0.665190000000     0.082740000000     0.0276369  
H45      H      0.494090000000     0.817000000000     0.071810000000     0.0508383  
H46      H      0.490870000000     0.690820000000     0.961370000000     0.0533677  
H47      H      0.481440000000     0.637380000000     0.097710000000     0.0347644  
H48      H      0.548620000000     0.818430000000     0.981920000000     0.0295014  
H49      H      0.487820000000     0.233790000000     0.035950000000     0.0433057  
H50      H      0.633350000000     0.347640000000     0.976410000000     0.026001   
H51      H      0.586440000000     0.140520000000     0.934820000000     0.0321494  
H52      H      0.546540000000     0.214010000000     0.922670000000     0.0494434  
H53      H      0.588010000000     0.296900000000     0.930640000000     0.0424548  
H54      H      0.544710000000     0.283470000000     0.070070000000     0.0428715  
H55      H      0.472660000000     0.151860000000     0.025450000000     0.0336951  
H56      H      0.596600000000     0.382990000000     0.942560000000     0.0351956  
H57      H      0.604230000000     0.223730000000     0.944670000000     0.0434387  
H58      H      0.507330000000     0.321500000000     0.038490000000     0.0528395  
H59      H      0.601480000000     0.155720000000     0.991750000000     0.032349   
H60      H      0.612210000000     0.332270000000     0.057210000000     0.0258433  
H61      H      0.537250000000     0.199600000000     0.052960000000     0.0501686  
H62      H      0.535260000000     0.326820000000     0.941940000000     0.0518524  
H63      H      0.566500000000     0.364040000000     0.083000000000     0.0353762  
H64      H      0.471480000000     0.181890000000     0.972420000000     0.0304864  
H65      H      0.466300000000     0.086560000000     0.702820000000     0.0431134  
H66      H      0.519060000000     0.943000000000     0.809010000000     0.0266186  
H67      H      0.580410000000     0.008500000000     0.656980000000     0.0264007  
H68      H      0.536900000000     0.952660000000     0.704200000000     0.0432504  
H69      H      0.572920000000     0.984710000000     0.758470000000     0.0432278  
H70      H      0.440240000000     0.058260000000     0.767660000000     0.0430426  
H71      H      0.481090000000     0.091370000000     0.620460000000     0.0346666  
H72      H      0.566810000000     0.966840000000     0.839740000000     0.035775   
H73      H      0.486660000000     0.960090000000     0.670880000000     0.0520975  
H74      H      0.489440000000     0.081770000000     0.797320000000     0.0503813  
H75      H      0.555290000000     0.963280000000     0.623940000000     0.0358566  
H76      H      0.437090000000     0.990290000000     0.814720000000     0.0288154  
H77      H      0.441280000000     0.039570000000     0.671480000000     0.0498424  
H78      H      0.569450000000     0.034730000000     0.792230000000     0.0521215  
H79      H      0.438170000000     0.041240000000     0.849010000000     0.0358226  
H80      H      0.532930000000     0.092220000000     0.654150000000     0.0295362  
H81      H      0.601450000000     0.982190000000     0.200740000000     0.0430384  
H82      H      0.578510000000     0.094000000000     0.310130000000     0.0278038  
H83      H      0.462140000000     0.987650000000     0.159720000000     0.0288455  
H84      H      0.468460000000     0.054700000000     0.207890000000     0.0427164  
H85      H      0.509390000000     0.092440000000     0.263330000000     0.0425751  
H86      H      0.579940000000     0.958850000000     0.264900000000     0.0428913  
H87      H      0.588250000000     0.970930000000     0.118850000000     0.0351538  
H88      H      0.527190000000     0.101890000000     0.343360000000     0.0355397  
H89      H      0.512960000000     0.080610000000     0.173430000000     0.0499343  
H90      H      0.527760000000     0.963140000000     0.296120000000     0.0520959  
H91      H      0.456680000000     0.039660000000     0.127220000000     0.034326   
H92      H      0.620140000000     0.012270000000     0.314620000000     0.0263795  
H93      H      0.596120000000     0.034400000000     0.170290000000     0.0519629  
H94      H      0.482530000000     0.047970000000     0.296970000000     0.0503452  
H95      H      0.592430000000     0.968510000000     0.347390000000     0.0353593  
H96      H      0.545210000000     0.943230000000     0.152840000000     0.0260907  
H97      H      0.924530000000     0.471310000000     0.748380000000     0.0431046  
H98      H      0.073690000000     0.511330000000     0.850100000000     0.0259123  
H99      H      0.005120000000     0.582530000000     0.706820000000     0.0262961  
H100     H      0.062890000000     0.534670000000     0.749100000000     0.0431289  
H101     H      0.032270000000     0.570560000000     0.804170000000     0.043377   
H102     H      0.954440000000     0.440870000000     0.812200000000     0.0431357  
H103     H      0.917710000000     0.491140000000     0.666800000000     0.0355233  
H104     H      0.056060000000     0.559950000000     0.882840000000     0.0352437  
H105     H      0.052000000000     0.487530000000     0.713000000000     0.0531156  
H106     H      0.932650000000     0.489720000000     0.843130000000     0.0498272  
H107     H      0.049720000000     0.560450000000     0.671030000000     0.0352476  
H108     H      0.022280000000     0.433310000000     0.859320000000     0.0289678  
H109     H      0.969280000000     0.445610000000     0.714300000000     0.0501628  
H110     H      0.983650000000     0.567250000000     0.840250000000     0.0532965  
H111     H      0.972080000000     0.438100000000     0.894880000000     0.0345633  
H112     H      0.921700000000     0.540580000000     0.702880000000     0.0288724  
H113     H      0.989510000000     0.595760000000     0.244740000000     0.0428988  
H114     H      0.029330000000     0.453220000000     0.362310000000     0.026032   
H115     H      0.093870000000     0.506630000000     0.194960000000     0.0264161  
H116     H      0.057350000000     0.461510000000     0.253840000000     0.0429087  
H117     H      0.084340000000     0.492960000000     0.313180000000     0.0428757  
H118     H      0.950510000000     0.564280000000     0.305650000000     0.0427483  
H119     H      0.998650000000     0.593330000000     0.161910000000     0.0341376  
H120     H      0.071430000000     0.482940000000     0.395840000000     0.0349841  
H121     H      0.002600000000     0.462950000000     0.226600000000     0.0519968  
H122     H      0.995350000000     0.589830000000     0.339840000000     0.050125   
H123     H      0.062270000000     0.459960000000     0.170230000000     0.0349706  
H124     H      0.944770000000     0.496690000000     0.353970000000     0.0288197  
H125     H      0.958720000000     0.548260000000     0.219190000000     0.0500373  
H126     H      0.077680000000     0.545360000000     0.342980000000     0.0515072  
H127     H      0.938560000000     0.548890000000     0.386020000000     0.0347732  
H128     H      0.053090000000     0.590640000000     0.191450000000     0.0291111  
H129     H      0.317480000000     0.060740000000     0.398260000000     0.0429064  
H130     H      0.198270000000     0.923920000000     0.457780000000     0.025651   
H131     H      0.363810000000     0.979750000000     0.511390000000     0.0268634  
H132     H      0.324100000000     0.924100000000     0.461340000000     0.0428444  
H133     H      0.266050000000     0.950660000000     0.498090000000     0.0432332  
H134     H      0.250600000000     0.027390000000     0.372880000000     0.0429781  
H135     H      0.396890000000     0.076050000000     0.425170000000     0.0342888  
H136     H      0.180100000000     0.953070000000     0.507720000000     0.0342712  
H137     H      0.361600000000     0.938290000000     0.416420000000     0.0513043  
H138     H      0.231430000000     0.057920000000     0.422520000000     0.0511128  
H139     H      0.405330000000     0.942180000000     0.485430000000     0.0355599  
H140     H      0.190810000000     0.968980000000     0.380600000000     0.028351   
H141     H      0.358220000000     0.018650000000     0.378200000000     0.0497727  
H142     H      0.243380000000     0.007300000000     0.503750000000     0.0531559  
H143     H      0.165060000000     0.025380000000     0.382560000000     0.0345603  
H144     H      0.356990000000     0.067300000000     0.470930000000     0.0299998  
H145     H      0.757380000000     0.140490000000     0.507520000000     0.0428025  
H146     H      0.892380000000     0.090760000000     0.583480000000     0.0280051  
H147     H      0.723880000000     0.997530000000     0.499420000000     0.0300662  
H148     H      0.760840000000     0.005250000000     0.573690000000     0.0428639  
H149     H      0.829910000000     0.035940000000     0.595230000000     0.042981   
H150     H      0.813380000000     0.110990000000     0.469390000000     0.0432441  
H151     H      0.676170000000     0.122670000000     0.482140000000     0.035522   
H152     H      0.914640000000     0.032850000000     0.582210000000     0.0343988  
H153     H      0.719920000000     0.048300000000     0.591000000000     0.0502442  
H154     H      0.831660000000     0.052790000000     0.463550000000     0.0528239  
H155     H      0.682680000000     0.989580000000     0.544240000000     0.0342949  
H156     H      0.884900000000     0.133960000000     0.504730000000     0.024938   
H157     H      0.718680000000     0.127330000000     0.551790000000     0.0512993  
H158     H      0.845080000000     0.003190000000     0.545600000000     0.0510199  
H159     H      0.898370000000     0.101520000000     0.455310000000     0.0341684  
H160     H      0.718020000000     0.084650000000     0.457320000000     0.0267633  
H161     H      0.074620000000     0.737700000000     0.496520000000     0.0427658  
H162     H      0.004330000000     0.867250000000     0.420410000000     0.0327662  
H163     H      0.935980000000     0.702150000000     0.538720000000     0.0287368  
H164     H      0.925160000000     0.740030000000     0.466580000000     0.0426285  
H165     H      0.948110000000     0.806400000000     0.431730000000     0.0431241  
H166     H      0.068980000000     0.822690000000     0.486460000000     0.0503955  
H167     H      0.064040000000     0.663270000000     0.534260000000     0.0357222  
H168     H      0.950430000000     0.892310000000     0.439040000000     0.0320422  
H169     H      0.961740000000     0.699590000000     0.437820000000     0.0494996  
H170     H      0.048850000000     0.798050000000     0.538930000000     0.0438725  
H171     H      0.919480000000     0.660250000000     0.497340000000     0.0355573  
H172     H      0.051060000000     0.881600000000     0.543120000000     0.0348999  
H173     H      0.050680000000     0.696440000000     0.459110000000     0.0527645  
H174     H      0.933380000000     0.826390000000     0.487470000000     0.0492025  
H175     H      0.992700000000     0.860680000000     0.549710000000     0.0297241  
H176     H      0.027390000000     0.705490000000     0.559810000000     0.0262198  
H177     H      0.007530000000     0.248150000000     0.434460000000     0.0427343  
H178     H      0.018860000000     0.338460000000     0.595100000000     0.0255836  
H179     H      0.125880000000     0.206800000000     0.502240000000     0.0257204  
H180     H      0.078500000000     0.236950000000     0.564780000000     0.0430817  
H181     H      0.086980000000     0.307650000000     0.554990000000     0.0431042  
H182     H      0.957980000000     0.291930000000     0.478180000000     0.0428576  
H183     H      0.040540000000     0.172580000000     0.412760000000     0.0358369  
H184     H      0.058980000000     0.383150000000     0.581280000000     0.0342771  
H185     H      0.033990000000     0.196600000000     0.553800000000     0.0542379  
H186     H      0.997270000000     0.335970000000     0.458500000000     0.0500815  
H187     H      0.110480000000     0.161650000000     0.540180000000     0.0346717  
H188     H      0.942780000000     0.331680000000     0.548030000000     0.0277237  
H189     H      0.987170000000     0.202860000000     0.471130000000     0.0510925  
H190     H      0.078120000000     0.345910000000     0.509490000000     0.0539076  
H191     H      0.934690000000     0.371030000000     0.502150000000     0.0348676  
H192     H      0.084030000000     0.213680000000     0.427450000000     0.0267338  
N1       N      0.883210000000     0.526850000000     0.032880000000    -0.174746   
N2       N      0.643680000000     0.559590000000     0.049530000000    -0.175353   
N3       N      0.394800000000     0.448930000000     0.990090000000    -0.175672   
N4       N      0.160750000000     0.496840000000     0.022140000000    -0.175198   
N5       N      0.459700000000     0.629140000000     0.028960000000    -0.175496   
N6       N      0.492370000000     0.864680000000     0.991050000000    -0.174773   
N7       N      0.578190000000     0.378060000000     0.012540000000    -0.175101   
N8       N      0.530560000000     0.139390000000     0.981840000000    -0.175312   
N9       N      0.500880000000     0.000860000000     0.848690000000    -0.174761   
N10      N      0.522640000000     0.030040000000     0.618110000000    -0.174782   
N11      N      0.560990000000     0.035860000000     0.349800000000    -0.175022   
N12      N      0.520550000000     0.002440000000     0.118910000000    -0.175038   
N13      N      0.016610000000     0.497410000000     0.892960000000    -0.174847   
N14      N      0.982550000000     0.527960000000     0.664800000000    -0.174759   
N15      N      0.002850000000     0.512360000000     0.395030000000    -0.174727   
N16      N      0.032530000000     0.527520000000     0.161710000000    -0.174843   
N17      N      0.168330000000     0.989180000000     0.445460000000    -0.174983   
N18      N      0.404190000000     0.012060000000     0.460890000000    -0.174513   
N19      N      0.910950000000     0.067380000000     0.518450000000    -0.1753     
N20      N      0.676560000000     0.053070000000     0.507440000000    -0.17468    
N21      N      0.005340000000     0.893210000000     0.486990000000    -0.17532    
N22      N      0.990780000000     0.657770000000     0.519080000000    -0.174663   
N23      N      0.996260000000     0.381240000000     0.541800000000    -0.17562    
N24      N      0.073970000000     0.162150000000     0.476980000000    -0.175453   
O1       O      0.069230000000     0.093340000000     0.514960000000    -0.399906   
O2       O      0.031590000000     0.959050000000     0.520560000000    -0.40283    
O3       O      0.114610000000     0.005960000000     0.499620000000    -0.400462   
O4       O      0.984740000000     0.044350000000     0.536290000000    -0.400231   
O5       O      0.964140000000     0.049300000000     0.464140000000    -0.399808   
O6       O      0.094330000000     0.011560000000     0.427420000000    -0.398626   
O7       O      0.009840000000     0.961860000000     0.448620000000    -0.397384   
O8       O      0.046880000000     0.096640000000     0.443260000000    -0.401694   
O9       O      0.036380000000     0.511940000000     0.465120000000    -0.398109   
O10      O      0.025700000000     0.528700000000     0.600240000000    -0.400843   
O11      O      0.032470000000     0.451290000000     0.541700000000    -0.402436   
O12      O      0.029960000000     0.589480000000     0.525480000000    -0.402377   
O13      O      0.952650000000     0.588360000000     0.524300000000    -0.3975     
O14      O      0.956370000000     0.448290000000     0.528470000000    -0.398022   
O15      O      0.949090000000     0.519450000000     0.595200000000    -0.397886   
O16      O      0.959450000000     0.517430000000     0.459220000000    -0.400645   
O17      O      0.536570000000     0.993410000000     0.551410000000    -0.401782   
O18      O      0.558080000000     0.996330000000     0.416740000000    -0.39866    
O19      O      0.614840000000     0.004970000000     0.496000000000    -0.401193   
O20      O      0.477520000000     0.984340000000     0.474140000000    -0.398471   
O21      O      0.466050000000     0.060310000000     0.471600000000    -0.400374   
O22      O      0.603450000000     0.080980000000     0.493540000000    -0.398375   
O23      O      0.544750000000     0.072010000000     0.416260000000    -0.402298   
O24      O      0.523040000000     0.069080000000     0.550870000000    -0.398726   
O25      O      0.554440000000     0.998660000000     0.049290000000    -0.39925    
O26      O      0.543550000000     0.992560000000     0.913370000000    -0.399109   
O27      O      0.558850000000     0.065640000000     0.976930000000    -0.398171   
O28      O      0.539770000000     0.927580000000     0.986460000000    -0.401607   
O29      O      0.463080000000     0.938010000000     0.985300000000    -0.397252   
O30      O      0.482960000000     0.076550000000     0.987270000000    -0.400198   
O31      O      0.468270000000     0.009400000000     0.918420000000    -0.401081   
O32      O      0.477670000000     0.007040000000     0.054220000000    -0.400773   
O33      O      0.025730000000     0.481720000000     0.099470000000    -0.399272   
O34      O      0.011180000000     0.467030000000     0.964220000000    -0.396754   
O35      O      0.087750000000     0.466460000000     0.027640000000    -0.400718   
O36      O      0.948600000000     0.482240000000     0.038170000000    -0.400215   
O37      O      0.955980000000     0.557070000000     0.022760000000    -0.399578   
O38      O      0.095990000000     0.542670000000     0.021530000000    -0.399812   
O39      O      0.025480000000     0.542040000000     0.955570000000    -0.402261   
O40      O      0.026860000000     0.558080000000     0.090800000000    -0.39919    
O41      O      0.463640000000     0.481100000000     0.968390000000    -0.400947   
O42      O      0.587420000000     0.539920000000     0.998300000000    -0.398716   
O43      O      0.557030000000     0.446820000000     0.979460000000    -0.395874   
O44      O      0.493390000000     0.571950000000     0.987100000000    -0.398096   
O45      O      0.484900000000     0.562000000000     0.061040000000    -0.401552   
O46      O      0.541440000000     0.434940000000     0.051930000000    -0.403985   
O47      O      0.576010000000     0.524620000000     0.070910000000    -0.402019   
O48      O      0.450080000000     0.470320000000     0.041490000000    -0.400614   


