data_structure

_audit_creation_method RASPA-1.0
_audit_creation_date 2023-6-4
_audit_author_name 'Poobodin Mano'

_cell_length_a    19.4633
_cell_length_b    21.3987
_cell_length_c    27.5437
_cell_angle_alpha 89.9989
_cell_angle_beta  89.9989
_cell_angle_gamma 94.7631
_cell_volume      11432

_symmetry_cell_setting          triclinic
_symmetry_space_group_name_Hall 'P 1'
_symmetry_space_group_name_H-M  'P 1'
_symmetry_Int_Tables_number     1

_symmetry_equiv_pos_as_xyz 'x,y,z'

loop_
_atom_site_label
_atom_site_type_symbol
_atom_site_fract_x
_atom_site_fract_y
_atom_site_fract_z
_atom_site_charge
C1       C      0.174460000000     0.817070000000     0.043020000000     0.399044   
C2       C      0.993680000000     0.991520000000     0.045290000000     0.39775    
C3       C      0.188020000000     0.994320000000     0.044840000000     0.404682   
C4       C      0.981610000000     0.815890000000     0.043800000000     0.40429    
C5       C      0.069040000000     0.951980000000     0.537280000000     0.397372   
C6       C      0.882110000000     0.121080000000     0.548970000000     0.395362   
C7       C      0.075010000000     0.127790000000     0.544590000000     0.404539   
C8       C      0.874730000000     0.943640000000     0.542030000000     0.403579   
C9       C      0.584500000000     0.408190000000     0.953230000000     0.478494   
C10      C      0.592320000000     0.399190000000     0.137370000000     0.478763   
C11      C      0.674830000000     0.325790000000     0.041760000000     0.463024   
C12      C      0.498870000000     0.488400000000     0.050020000000     0.474781   
C13      C      0.465070000000     0.525290000000     0.451330000000     0.477444   
C14      C      0.472500000000     0.539630000000     0.635420000000     0.475784   
C15      C      0.553410000000     0.448860000000     0.545900000000     0.460189   
C16      C      0.382560000000     0.617010000000     0.543620000000     0.469252   
C17      C      0.418880000000     0.512430000000     0.715290000000     0.0180714  
C18      C      0.637420000000     0.441650000000     0.874240000000     0.0174435  
C19      C      0.529820000000     0.371400000000     0.875760000000     0.0183656  
C20      C      0.605820000000     0.488930000000     0.840950000000    -0.10129    
C21      C      0.449540000000     0.465740000000     0.749420000000    -0.101311   
C22      C      0.491600000000     0.414950000000     0.843300000000    -0.101613   
C23      C      0.516660000000     0.491220000000     0.774150000000     0.0168779  
C24      C      0.539240000000     0.463170000000     0.815640000000     0.0167507  
C25      C      0.527580000000     0.580910000000     0.711610000000     0.0182196  
C26      C      0.564690000000     0.538890000000     0.746170000000    -0.101385   
C27      C      0.506480000000     0.565420000000     0.370980000000     0.017882   
C28      C      0.552180000000     0.351480000000     0.215760000000     0.0173117  
C29      C      0.645010000000     0.437530000000     0.215070000000     0.0183016  
C30      C      0.507160000000     0.387110000000     0.250000000000    -0.100949   
C31      C      0.553710000000     0.528670000000     0.339420000000    -0.101292   
C32      C      0.605010000000     0.479540000000     0.247620000000    -0.101228   
C33      C      0.517100000000     0.470520000000     0.315330000000     0.0171329  
C34      C      0.544780000000     0.444440000000     0.274720000000     0.0167181  
C35      C      0.416830000000     0.476490000000     0.375480000000     0.0180101  
C36      C      0.458270000000     0.434820000000     0.343440000000    -0.101372   
C37      C      0.351770000000     0.719740000000     0.573950000000     0.0144853  
C38      C      0.128670000000     0.875670000000     0.488670000000     0.0116932  
C39      C      0.173040000000     0.909390000000     0.571420000000     0.0108193  
C40      C      0.143120000000     0.807540000000     0.499370000000    -0.101209   
C41      C      0.322910000000     0.776690000000     0.550020000000    -0.102356   
C42      C      0.191940000000     0.842620000000     0.581980000000    -0.100436   
C43      C      0.249210000000     0.762250000000     0.532730000000     0.0186917  
C44      C      0.201310000000     0.805470000000     0.535790000000     0.0171886  
C45      C      0.264670000000     0.647440000000     0.528710000000     0.0160115  
C46      C      0.237920000000     0.703560000000     0.502020000000    -0.103414   
C47      C      0.802190000000     0.861440000000     0.586110000000     0.0119725  
C48      C      0.573510000000     0.694150000000     0.503200000000    -0.0115673  
C49      C      0.617130000000     0.669020000000     0.582250000000    -0.00644797 
C50      C      0.632110000000     0.744420000000     0.493610000000    -0.087866   
C51      C      0.723800000000     0.857450000000     0.591110000000    -0.102349   
C52      C      0.677710000000     0.719030000000     0.578190000000    -0.0896682  
C53      C      0.691980000000     0.829770000000     0.544870000000     0.0200641  
C54      C      0.664210000000     0.769020000000     0.540790000000     0.0122186  
C55      C      0.789370000000     0.875620000000     0.495260000000     0.0116068  
C56      C      0.710800000000     0.870730000000     0.501030000000    -0.10262    
C57      C      0.824660000000     0.206410000000     0.509510000000     0.0113231  
C58      C      0.575160000000     0.337460000000     0.558110000000     0.0146413  
C59      C      0.666930000000     0.413980000000     0.522220000000     0.0139581  
C60      C      0.629900000000     0.305700000000     0.587300000000    -0.102599   
C61      C      0.804720000000     0.271570000000     0.525140000000    -0.100942   
C62      C      0.722860000000     0.381840000000     0.549620000000    -0.102016   
C63      C      0.742660000000     0.266750000000     0.558830000000     0.0156025  
C64      C      0.699640000000     0.314280000000     0.562480000000     0.0182752  
C65      C      0.798240000000     0.175870000000     0.597200000000     0.0114297  
C66      C      0.730380000000     0.206280000000     0.587800000000    -0.101179   
C67      C      0.282390000000     0.441140000000     0.516920000000    -0.00632923 
C68      C      0.156630000000     0.199470000000     0.591380000000     0.0128595  
C69      C      0.141320000000     0.214760000000     0.501710000000     0.0115043  
C70      C      0.136380000000     0.265850000000     0.601140000000    -0.10169    
C71      C      0.230880000000     0.384720000000     0.509580000000    -0.0878584  
C72      C      0.120480000000     0.281330000000     0.510620000000    -0.101256   
C73      C      0.209550000000     0.351740000000     0.556800000000     0.0132728  
C74      C      0.155550000000     0.306390000000     0.556990000000     0.0184013  
C75      C      0.312880000000     0.414850000000     0.598030000000    -0.00319744 
C76      C      0.256410000000     0.360570000000     0.601220000000    -0.0895157  
C77      C      0.477410000000     0.600200000000     0.042790000000     0.0164883  
C78      C      0.228680000000     0.731960000000     0.085310000000     0.01193    
C79      C      0.257740000000     0.759470000000     0.997340000000     0.0119529  
C80      C      0.248520000000     0.666210000000     0.071160000000    -0.101226   
C81      C      0.424330000000     0.630870000000     0.011830000000    -0.1029     
C82      C      0.324950000000     0.729470000000     0.008350000000    -0.100864   
C83      C      0.353840000000     0.622180000000     0.035460000000     0.0185308  
C84      C      0.311240000000     0.669890000000     0.038100000000     0.0159245  
C85      C      0.385470000000     0.521960000000     0.076010000000     0.0154735  
C86      C      0.329900000000     0.554780000000     0.048660000000    -0.102701   
C87      C      0.895430000000     0.747380000000     0.089460000000     0.011847   
C88      C      0.707730000000     0.556380000000     0.999930000000    -0.0132314  
C89      C      0.697060000000     0.563720000000     0.086790000000    -0.0133169  
C90      C      0.760610000000     0.613130000000     0.997190000000    -0.0866303  
C91      C      0.817190000000     0.749910000000     0.086660000000    -0.102438   
C92      C      0.750700000000     0.619530000000     0.090540000000    -0.0863321  
C93      C      0.791630000000     0.714520000000     0.041460000000     0.0199898  
C94      C      0.763020000000     0.653660000000     0.042600000000     0.0118829  
C95      C      0.900210000000     0.743300000000     0.997500000000     0.011559   
C96      C      0.821920000000     0.745740000000     0.995850000000    -0.102458   
C97      C      0.793060000000     0.297430000000     0.057160000000     0.0162132  
C98      C      0.897350000000     0.039230000000     0.004560000000     0.0120195  
C99      C      0.928940000000     0.067300000000     0.090920000000     0.0115686  
C100     C      0.885460000000     0.107620000000     0.993500000000    -0.101596   
C101     C      0.825440000000     0.239680000000     0.077240000000    -0.10316    
C102     C      0.920140000000     0.136720000000     0.080850000000    -0.101149   
C103     C      0.822070000000     0.187000000000     0.040100000000     0.0170761  
C104     C      0.870160000000     0.143720000000     0.039250000000     0.0175797  
C105     C      0.701050000000     0.217120000000     0.024050000000     0.0159686  
C106     C      0.762890000000     0.184840000000     0.003920000000    -0.102064   
C107     C      0.430060000000     0.285120000000     0.996900000000    -0.00553765 
C108     C      0.262210000000     0.074040000000     0.090250000000     0.0116339  
C109     C      0.270000000000     0.067380000000     0.999500000000     0.0124775  
C110     C      0.246870000000     0.143080000000     0.086850000000    -0.10141    
C111     C      0.374530000000     0.230070000000     0.994250000000    -0.0891044  
C112     C      0.253950000000     0.135780000000     0.994800000000    -0.101979   
C113     C      0.331930000000     0.217460000000     0.040240000000     0.013182   
C114     C      0.278760000000     0.171220000000     0.040360000000     0.018729   
C115     C      0.405630000000     0.306470000000     0.080120000000    -0.00547861 
C116     C      0.356960000000     0.247900000000     0.087640000000    -0.0885607  
Cu1      Cu     0.084710000000     0.905480000000     0.999470000000     0.841573   
Cu2      Cu     0.085150000000     0.904350000000     0.089080000000     0.840648   
Cu3      Cu     0.972730000000     0.038740000000     0.498560000000     0.839894   
Cu4      Cu     0.977080000000     0.032860000000     0.587970000000     0.835466   
Cu5      Cu     0.641190000000     0.454510000000     0.045100000000     1.19427    
Cu6      Cu     0.531260000000     0.359000000000     0.045660000000     1.18047    
Cu7      Cu     0.523370000000     0.580080000000     0.540950000000     1.17165    
Cu8      Cu     0.412730000000     0.486710000000     0.545620000000     1.18532    
H1       H      0.408560000000     0.452800000000     0.776500000000     0.0414614  
H2       H      0.662440000000     0.407450000000     0.851080000000     0.0244569  
H3       H      0.503600000000     0.616920000000     0.733620000000     0.0231916  
H4       H      0.594520000000     0.571420000000     0.771250000000     0.0414657  
H5       H      0.646760000000     0.503650000000     0.814300000000     0.0416032  
H6       H      0.460480000000     0.383470000000     0.818180000000     0.0414926  
H7       H      0.376840000000     0.487570000000     0.693670000000     0.0308476  
H8       H      0.678450000000     0.466570000000     0.896670000000     0.0316626  
H9       H      0.601570000000     0.512840000000     0.724880000000     0.0505365  
H10      H      0.455910000000     0.440450000000     0.866030000000     0.0501506  
H11      H      0.566080000000     0.606080000000     0.687240000000     0.0312768  
H12      H      0.554360000000     0.337370000000     0.852160000000     0.0233884  
H13      H      0.459780000000     0.423090000000     0.728480000000     0.0497966  
H14      H      0.594470000000     0.530560000000     0.862760000000     0.0487081  
H15      H      0.491850000000     0.344120000000     0.899230000000     0.0303315  
H16      H      0.395330000000     0.548250000000     0.737740000000     0.0236477  
H17      H      0.575800000000     0.562670000000     0.312010000000     0.0418371  
H18      H      0.585070000000     0.322620000000     0.238200000000     0.0248334  
H19      H      0.382590000000     0.502150000000     0.351610000000     0.0232865  
H20      H      0.420060000000     0.410370000000     0.318570000000     0.0419086  
H21      H      0.486670000000     0.352090000000     0.277190000000     0.0420971  
H22      H      0.643580000000     0.501910000000     0.273280000000     0.0417819  
H23      H      0.538460000000     0.601110000000     0.392240000000     0.0321113  
H24      H      0.518570000000     0.318750000000     0.192990000000     0.0334262  
H25      H      0.480560000000     0.399120000000     0.366650000000     0.0515695  
H26      H      0.584470000000     0.516780000000     0.225000000000     0.0498753  
H27      H      0.383120000000     0.446370000000     0.400110000000     0.0329951  
H28      H      0.676480000000     0.408770000000     0.238670000000     0.0241375  
H29      H      0.596440000000     0.513540000000     0.362220000000     0.0508199  
H30      H      0.463100000000     0.403120000000     0.229000000000     0.0492143  
H31      H      0.681310000000     0.467140000000     0.191910000000     0.031483   
H32      H      0.472700000000     0.590910000000     0.346640000000     0.0237428  
H33      H      0.329760000000     0.817040000000     0.575180000000     0.0427243  
H34      H      0.173320000000     0.898920000000     0.468560000000     0.0294888  
H35      H      0.231160000000     0.635870000000     0.560740000000     0.0269513  
H36      H      0.182370000000     0.691260000000     0.494470000000     0.0426458  
H37      H      0.156200000000     0.786100000000     0.464180000000     0.0426206  
H38      H      0.237290000000     0.845280000000     0.606340000000     0.0425645  
H39      H      0.408080000000     0.730210000000     0.579810000000     0.0329454  
H40      H      0.082680000000     0.875160000000     0.464650000000     0.0347074  
H41      H      0.265370000000     0.711020000000     0.466840000000     0.049533   
H42      H      0.149010000000     0.817900000000     0.602880000000     0.0512721  
H43      H      0.260060000000     0.606300000000     0.503870000000     0.0311925  
H44      H      0.220080000000     0.937110000000     0.557970000000     0.0272796  
H45      H      0.355050000000     0.789970000000     0.517680000000     0.0501186  
H46      H      0.095930000000     0.781390000000     0.514080000000     0.0499883  
H47      H      0.157980000000     0.931350000000     0.605980000000     0.0354863  
H48      H      0.327610000000     0.713080000000     0.610380000000     0.0255697  
H49      H      0.706610000000     0.833150000000     0.624910000000     0.0421857  
H50      H      0.529620000000     0.716410000000     0.519940000000     0.0337134  
H51      H      0.805520000000     0.828600000000     0.485350000000     0.0277749  
H52      H      0.687710000000     0.854120000000     0.466230000000     0.0425086  
H53      H      0.608100000000     0.781590000000     0.473160000000     0.0390536  
H54      H      0.687720000000     0.737130000000     0.615240000000     0.0396032  
H55      H      0.825480000000     0.883470000000     0.619420000000     0.0358254  
H56      H      0.556000000000     0.674370000000     0.467730000000     0.0323585  
H57      H      0.693610000000     0.918360000000     0.507250000000     0.050763   
H58      H      0.724350000000     0.696260000000     0.566650000000     0.0478595  
H59      H      0.803490000000     0.907800000000     0.464530000000     0.0362455  
H60      H      0.572960000000     0.688750000000     0.600830000000     0.0297786  
H61      H      0.707820000000     0.905860000000     0.595440000000     0.0511579  
H62      H      0.672280000000     0.725060000000     0.470680000000     0.0467371  
H63      H      0.634140000000     0.630210000000     0.604850000000     0.0309902  
H64      H      0.818910000000     0.813060000000     0.583810000000     0.0271656  
H65      H      0.849080000000     0.297290000000     0.543870000000     0.0484825  
H66      H      0.564520000000     0.310580000000     0.523990000000     0.0287191  
H67      H      0.831610000000     0.206590000000     0.621670000000     0.030835   
H68      H      0.707500000000     0.215490000000     0.623810000000     0.042413   
H69      H      0.611110000000     0.255510000000     0.590990000000     0.0427113  
H70      H      0.770860000000     0.386920000000     0.527840000000     0.0421679  
H71      H      0.782680000000     0.183190000000     0.486830000000     0.0310037  
H72      H      0.526690000000     0.334610000000     0.579680000000     0.0349468  
H73      H      0.694160000000     0.172930000000     0.567510000000     0.0491777  
H74      H      0.734270000000     0.407730000000     0.584060000000     0.050478   
H75      H      0.786370000000     0.130570000000     0.616490000000     0.032285   
H76      H      0.663470000000     0.394540000000     0.484770000000     0.0262766  
H77      H      0.793080000000     0.297260000000     0.491450000000     0.0429335  
H78      H      0.634250000000     0.326490000000     0.624260000000     0.049496   
H79      H      0.683540000000     0.464780000000     0.518960000000     0.0358458  
H80      H      0.871580000000     0.212600000000     0.486350000000     0.0328475  
H81      H      0.185230000000     0.402310000000     0.491460000000     0.0387058  
H82      H      0.213730000000     0.201180000000     0.588010000000     0.0262033  
H83      H      0.293090000000     0.458760000000     0.612060000000     0.0274757  
H84      H      0.225280000000     0.369730000000     0.633850000000     0.0392083  
H85      H      0.159580000000     0.283010000000     0.635800000000     0.0420256  
H86      H      0.132080000000     0.309770000000     0.477650000000     0.0418308  
H87      H      0.303050000000     0.456320000000     0.480950000000     0.0312314  
H88      H      0.141560000000     0.168910000000     0.622890000000     0.0350892  
H89      H      0.281580000000     0.316370000000     0.607070000000     0.0454872  
H90      H      0.063650000000     0.279440000000     0.515650000000     0.051043   
H91      H      0.356170000000     0.403420000000     0.621820000000     0.0289878  
H92      H      0.197830000000     0.217180000000     0.494890000000     0.0278128  
H93      H      0.254080000000     0.350810000000     0.485150000000     0.047251   
H94      H      0.079610000000     0.264020000000     0.606460000000     0.0527972  
H95      H      0.114840000000     0.195460000000     0.468560000000     0.035693   
H96      H      0.255810000000     0.480740000000     0.532440000000     0.0315929  
H97      H      0.443280000000     0.680990000000     0.007920000000     0.0425614  
H98      H      0.180870000000     0.726900000000     0.107610000000     0.0334571  
H99      H      0.388140000000     0.540380000000     0.113780000000     0.0245467  
H100     H      0.282020000000     0.550420000000     0.070600000000     0.0422113  
H101     H      0.204440000000     0.640160000000     0.052370000000     0.0495915  
H102     H      0.348730000000     0.719310000000     0.972820000000     0.04225    
H103     H      0.527570000000     0.604980000000     0.023250000000     0.0322118  
H104     H      0.270030000000     0.755460000000     0.108380000000     0.0311936  
H105     H      0.317960000000     0.528860000000     0.014310000000     0.0499669  
H106     H      0.360630000000     0.763280000000     0.028670000000     0.0496474  
H107     H      0.369260000000     0.470990000000     0.078280000000     0.0320441  
H108     H      0.224700000000     0.727850000000     0.973300000000     0.0313957  
H109     H      0.421730000000     0.609260000000     0.975100000000     0.0495118  
H110     H      0.259340000000     0.641380000000     0.105410000000     0.0431518  
H111     H      0.270370000000     0.803910000000     0.977020000000     0.033079   
H112     H      0.484290000000     0.626340000000     0.077610000000     0.0255594  
H113     H      0.793590000000     0.733380000000     0.121260000000     0.0421795  
H114     H      0.655020000000     0.571380000000     0.993870000000     0.0307205  
H115     H      0.912280000000     0.693470000000     0.995410000000     0.0273636  
H116     H      0.801500000000     0.726230000000     0.961160000000     0.0418259  
H117     H      0.745530000000     0.639250000000     0.964750000000     0.0383128  
H118     H      0.729980000000     0.650160000000     0.118430000000     0.0383649  
H119     H      0.914820000000     0.774520000000     0.121750000000     0.0359973  
H120     H      0.719790000000     0.524800000000     0.969810000000     0.0334729  
H121     H      0.810090000000     0.795710000000     0.995530000000     0.0505429  
H122     H      0.800300000000     0.603440000000     0.103650000000     0.046684   
H123     H      0.922920000000     0.767590000000     0.964890000000     0.0358804  
H124     H      0.644850000000     0.580850000000     0.083660000000     0.0321281  
H125     H      0.805500000000     0.799740000000     0.083410000000     0.0510391  
H126     H      0.812710000000     0.596900000000     0.991000000000     0.0465018  
H127     H      0.699210000000     0.537440000000     0.121270000000     0.0331937  
H128     H      0.907010000000     0.697850000000     0.095080000000     0.0275132  
H129     H      0.879760000000     0.254880000000     0.086770000000     0.0430671  
H130     H      0.846800000000     0.014080000000     0.013990000000     0.0263234  
H131     H      0.660700000000     0.217260000000     0.995430000000     0.0317482  
H132     H      0.781060000000     0.208350000000     0.969720000000     0.0491199  
H133     H      0.844610000000     0.108060000000     0.965520000000     0.0421596  
H134     H      0.902050000000     0.157010000000     0.115200000000     0.0424545  
H135     H      0.795040000000     0.334150000000     0.085860000000     0.033791   
H136     H      0.915970000000     0.017150000000     0.971040000000     0.0346737  
H137     H      0.744210000000     0.135470000000     0.995700000000     0.0431618  
H138     H      0.970890000000     0.161370000000     0.071360000000     0.0491032  
H139     H      0.678200000000     0.189450000000     0.055120000000     0.0311619  
H140     H      0.880010000000     0.045200000000     0.106410000000     0.0285802  
H141     H      0.797740000000     0.223050000000     0.110710000000     0.0503201  
H142     H      0.933130000000     0.130610000000     0.976920000000     0.0506136  
H143     H      0.969920000000     0.064550000000     0.118790000000     0.0345234  
H144     H      0.824240000000     0.316980000000     0.026010000000     0.0308726  
H145     H      0.340360000000     0.240840000000     0.963610000000     0.0390083  
H146     H      0.318800000000     0.071970000000     0.094750000000     0.0279113  
H147     H      0.376190000000     0.345830000000     0.067390000000     0.0306356  
H148     H      0.312550000000     0.262540000000     0.108980000000     0.0388483  
H149     H      0.264860000000     0.166860000000     0.120750000000     0.0421209  
H150     H      0.275780000000     0.154690000000     0.960260000000     0.0420522  
H151     H      0.471580000000     0.275050000000     0.971150000000     0.0301921  
H152     H      0.236660000000     0.052860000000     0.123110000000     0.0359159  
H153     H      0.383960000000     0.213360000000     0.109120000000     0.0476368  
H154     H      0.197180000000     0.137610000000     0.991790000000     0.0526457  
H155     H      0.428910000000     0.320300000000     0.115630000000     0.0309091  
H156     H      0.326960000000     0.065670000000     0.000670000000     0.026678   
H157     H      0.399920000000     0.186830000000     0.985230000000     0.0452785  
H158     H      0.190100000000     0.145770000000     0.085330000000     0.0511021  
H159     H      0.250850000000     0.040960000000     0.966790000000     0.035121   
H160     H      0.408300000000     0.329090000000     0.984850000000     0.0282053  
N1       N      0.583560000000     0.407760000000     0.903540000000    -0.190314   
N2       N      0.473320000000     0.543640000000     0.684990000000    -0.189717   
N3       N      0.596640000000     0.395860000000     0.186860000000    -0.18995    
N4       N      0.463330000000     0.522190000000     0.401720000000    -0.189858   
N5       N      0.118880000000     0.910530000000     0.533970000000    -0.173347   
N6       N      0.336210000000     0.661780000000     0.545520000000    -0.188086   
N7       N      0.595910000000     0.644090000000     0.534480000000    -0.229469   
N8       N      0.823490000000     0.895960000000     0.541300000000    -0.175471   
N9       N      0.598640000000     0.402850000000     0.545500000000    -0.184378   
N10      N      0.836100000000     0.166150000000     0.551780000000    -0.173929   
N11      N      0.124970000000     0.176440000000     0.545380000000    -0.175982   
N12      N      0.338510000000     0.424330000000     0.548430000000    -0.231962   
N13      N      0.219290000000     0.771120000000     0.042110000000    -0.17451    
N14      N      0.454000000000     0.534280000000     0.053420000000    -0.189382   
N15      N      0.710640000000     0.522330000000     0.046010000000    -0.228345   
N16      N      0.927870000000     0.770630000000     0.043590000000    -0.175643   
N17      N      0.944780000000     0.034090000000     0.045920000000    -0.174151   
N18      N      0.721620000000     0.281470000000     0.040710000000    -0.18605    
N19      N      0.239910000000     0.041370000000     0.045050000000    -0.175784   
N20      N      0.459700000000     0.293570000000     0.045510000000    -0.230372   
O1       O      0.155370000000     0.840890000000     0.002940000000    -0.39881    
O2       O      0.013360000000     0.969630000000     0.004640000000    -0.397887   
O3       O      0.162030000000     0.974520000000     0.004320000000    -0.403091   
O4       O      0.007770000000     0.836160000000     0.003480000000    -0.403219   
O5       O      0.005140000000     0.838060000000     0.084310000000    -0.40346    
O6       O      0.164900000000     0.971150000000     0.085150000000    -0.402726   
O7       O      0.018390000000     0.972630000000     0.085450000000    -0.397774   
O8       O      0.151450000000     0.835710000000     0.083800000000    -0.397197   
O9       O      0.041550000000     0.971910000000     0.498430000000    -0.396661   
O10      O      0.904570000000     0.105100000000     0.507310000000    -0.397271   
O11      O      0.050790000000     0.107060000000     0.503820000000    -0.402826   
O12      O      0.894830000000     0.970190000000     0.502160000000    -0.402724   
O13      O      0.902450000000     0.961390000000     0.582520000000    -0.402203   
O14      O      0.051600000000     0.104280000000     0.584700000000    -0.403442   
O15      O      0.903170000000     0.095610000000     0.587950000000    -0.394801   
O16      O      0.051050000000     0.971660000000     0.579080000000    -0.395432   
O17      O      0.633200000000     0.438620000000     0.975840000000    -0.484481   
O18      O      0.630230000000     0.440260000000     0.114370000000    -0.48657    
O19      O      0.695970000000     0.383390000000     0.046800000000    -0.472326   
O20      O      0.562330000000     0.503670000000     0.042590000000    -0.494406   
O21      O      0.477680000000     0.430990000000     0.055040000000    -0.480199   
O22      O      0.610460000000     0.309190000000     0.038160000000    -0.46888    
O23      O      0.550590000000     0.361230000000     0.114470000000    -0.482797   
O24      O      0.536890000000     0.377620000000     0.976760000000    -0.487361   
O25      O      0.503940000000     0.567480000000     0.472370000000    -0.485317   
O26      O      0.520020000000     0.568680000000     0.610700000000    -0.479797   
O27      O      0.575390000000     0.506040000000     0.539150000000    -0.466996   
O28      O      0.446500000000     0.632140000000     0.549580000000    -0.479101   
O29      O      0.361350000000     0.559930000000     0.537140000000    -0.483073   
O30      O      0.489120000000     0.434080000000     0.551790000000    -0.4711     
O31      O      0.423790000000     0.507360000000     0.614090000000    -0.48442    
O32      O      0.427530000000     0.486230000000     0.476340000000    -0.483663   


