data_structure

_audit_creation_method RASPA-1.0
_audit_creation_date 2023-5-25
_audit_author_name 'Poobodin Mano'

_cell_length_a    29.6392
_cell_length_b    29.8306
_cell_length_c    29.7905
_cell_angle_alpha 89.9998
_cell_angle_beta  89.9998
_cell_angle_gamma 89.9998
_cell_volume      26339.4

_symmetry_cell_setting          triclinic
_symmetry_space_group_name_Hall 'P 1'
_symmetry_space_group_name_H-M  'P 1'
_symmetry_Int_Tables_number     1

_symmetry_equiv_pos_as_xyz 'x,y,z'

loop_
_atom_site_label
_atom_site_type_symbol
_atom_site_fract_x
_atom_site_fract_y
_atom_site_fract_z
_atom_site_charge
C1       C      0.006680000000     0.106430000000     0.496280000000     0.400228   
C2       C      0.010440000000     0.928560000000     0.482080000000     0.403925   
C3       C      0.097620000000     0.017090000000     0.480600000000     0.400133   
C4       C      0.918600000000     0.014650000000     0.496450000000     0.399925   
C5       C      0.022770000000     0.526520000000     0.415750000000     0.402063   
C6       C      0.996070000000     0.517690000000     0.592270000000     0.401727   
C7       C      0.016640000000     0.431690000000     0.499460000000     0.401764   
C8       C      0.001970000000     0.609390000000     0.507190000000     0.40209    
C9       C      0.522640000000     0.977590000000     0.415550000000     0.401291   
C10      C      0.495280000000     0.978770000000     0.591840000000     0.401994   
C11      C      0.420730000000     0.987710000000     0.490430000000     0.400855   
C12      C      0.597310000000     0.970630000000     0.518190000000     0.401768   
C13      C      0.503830000000     0.003080000000     0.092350000000     0.402527   
C14      C      0.511180000000     0.004780000000     0.914260000000     0.403322   
C15      C      0.501080000000     0.091760000000     0.003580000000     0.402896   
C16      C      0.513760000000     0.914020000000     0.001850000000     0.399666   
C17      C      0.015070000000     0.517900000000     0.093320000000     0.400117   
C18      C      0.005340000000     0.512570000000     0.914970000000     0.399164   
C19      C      0.099810000000     0.514680000000     0.000480000000     0.401668   
C20      C      0.920790000000     0.517660000000     0.009100000000     0.403003   
C21      C      0.514130000000     0.412780000000     0.034550000000     0.401323   
C22      C      0.499200000000     0.590400000000     0.032780000000     0.401287   
C23      C      0.417650000000     0.493050000000     0.042200000000     0.403246   
C24      C      0.595240000000     0.507630000000     0.024020000000     0.400863   
C25      C      0.660640000000     0.523790000000     0.975830000000     0.0124741  
C26      C      0.849930000000     0.484740000000     0.037850000000     0.0138169  
C27      C      0.850380000000     0.559610000000     0.996500000000     0.0578622  
C28      C      0.805150000000     0.472910000000     0.015390000000    -0.104785   
C29      C      0.704510000000     0.549660000000     0.983700000000    -0.101392   
C30      C      0.806110000000     0.546930000000     0.972880000000    -0.117005   
C31      C      0.735590000000     0.521900000000     0.012770000000     0.016803   
C32      C      0.779640000000     0.514770000000     0.001930000000     0.0244346  
C33      C      0.670310000000     0.483570000000     0.050200000000     0.011197   
C34      C      0.715460000000     0.507300000000     0.057140000000    -0.100705   
C35      C      0.171750000000     0.553340000000     0.017180000000     0.0109949  
C36      C      0.347250000000     0.458540000000     0.014630000000     0.0148623  
C37      C      0.347710000000     0.505720000000     0.085490000000     0.0573657  
C38      C      0.304680000000     0.482040000000     0.998300000000    -0.104105   
C39      C      0.203820000000     0.538440000000     0.054790000000    -0.100601   
C40      C      0.304420000000     0.529750000000     0.069940000000    -0.116153   
C41      C      0.232000000000     0.499560000000     0.037910000000     0.0156943  
C42      C      0.277900000000     0.500920000000     0.037330000000     0.0241651  
C43      C      0.171910000000     0.475570000000     0.984110000000     0.012214   
C44      C      0.205080000000     0.460080000000     0.020170000000    -0.100582   
C45      C      0.558030000000     0.845070000000     0.015770000000     0.0113909  
C46      C      0.471120000000     0.659990000000     0.996880000000     0.0140692  
C47      C      0.513590000000     0.662650000000     0.070870000000     0.0567141  
C48      C      0.497360000000     0.700860000000     0.980280000000    -0.104097   
C49      C      0.545350000000     0.803890000000     0.043950000000    -0.100573   
C50      C      0.540440000000     0.703670000000     0.054410000000    -0.11599    
C51      C      0.511660000000     0.774930000000     0.018870000000     0.0159715  
C52      C      0.514030000000     0.729220000000     0.019170000000     0.0234988  
C53      C      0.483630000000     0.841390000000     0.975050000000     0.0117958  
C54      C      0.470350000000     0.799630000000     0.001660000000    -0.10072    
C55      C      0.505480000000     0.341240000000     0.075360000000     0.011926   
C56      C      0.531880000000     0.164970000000     0.979980000000     0.0147843  
C57      C      0.457580000000     0.159740000000     0.022440000000     0.0571945  
C58      C      0.545880000000     0.204960000000     0.008640000000    -0.104895   
C59      C      0.476740000000     0.300750000000     0.061670000000    -0.100999   
C60      C      0.471480000000     0.199960000000     0.051760000000    -0.116538   
C61      C      0.501020000000     0.274600000000     0.025430000000     0.0161964  
C62      C      0.504870000000     0.229190000000     0.026810000000     0.0243342  
C63      C      0.541800000000     0.343240000000     0.998720000000     0.0122817  
C64      C      0.515200000000     0.301690000000     0.984740000000    -0.100498   
C65      C      0.499450000000     0.938020000000     0.663790000000     0.012338   
C66      C      0.478430000000     0.031310000000     0.842880000000     0.0144737  
C67      C      0.553200000000     0.989530000000     0.844550000000     0.0580034  
C68      C      0.464240000000     0.005330000000     0.801070000000    -0.104498   
C69      C      0.529070000000     0.951050000000     0.703760000000    -0.100868   
C70      C      0.538800000000     0.962060000000     0.803310000000    -0.116733   
C71      C      0.506160000000     0.988090000000     0.729940000000     0.0160099  
C72      C      0.504870000000     0.988000000000     0.775560000000     0.0243261  
C73      C      0.466200000000     0.015690000000     0.660560000000     0.0117789  
C74      C      0.492430000000     0.028960000000     0.702750000000    -0.100307   
C75      C      0.515900000000     0.936800000000     0.343590000000     0.011976   
C76      C      0.535430000000     0.030700000000     0.163970000000     0.014378   
C77      C      0.462400000000     0.986220000000     0.162280000000     0.0573359  
C78      C      0.550870000000     0.004950000000     0.205460000000    -0.104487   
C79      C      0.486250000000     0.950980000000     0.304020000000    -0.100658   
C80      C      0.477490000000     0.959940000000     0.204130000000    -0.116261   
C81      C      0.510010000000     0.987230000000     0.277380000000     0.0156928  
C82      C      0.510960000000     0.986880000000     0.231620000000     0.0239448  
C83      C      0.552730000000     0.012710000000     0.346040000000     0.0115388  
C84      C      0.525810000000     0.027350000000     0.304690000000    -0.100289   
C85      C      0.985630000000     0.470190000000     0.846300000000     0.0109591  
C86      C      0.019550000000     0.547400000000     0.665740000000     0.0143686  
C87      C      0.947640000000     0.501480000000     0.658070000000     0.0565216  
C88      C      0.030210000000     0.524240000000     0.710010000000    -0.10471    
C89      C      0.954970000000     0.482500000000     0.806500000000    -0.101094   
C90      C      0.957530000000     0.478920000000     0.703760000000    -0.116093   
C91      C      0.979090000000     0.516040000000     0.776990000000     0.0163457  
C92      C      0.987340000000     0.508550000000     0.732590000000     0.0244052  
C93      C      0.024180000000     0.545890000000     0.841260000000     0.0109856  
C94      C      0.994350000000     0.557990000000     0.801250000000    -0.100412   
C95      C      0.036660000000     0.480270000000     0.163920000000     0.0115146  
C96      C      0.996520000000     0.556910000000     0.343380000000     0.0144932  
C97      C      0.073360000000     0.519660000000     0.350280000000     0.0573713  
C98      C      0.989610000000     0.535310000000     0.297470000000    -0.104335   
C99      C      0.067030000000     0.496320000000     0.202430000000    -0.101309   
C100     C      0.066470000000     0.496940000000     0.304350000000    -0.116324   
C101     C      0.041050000000     0.529610000000     0.230640000000     0.0163967  
C102     C      0.034230000000     0.523820000000     0.275490000000     0.0241793  
C103     C      0.994410000000     0.554190000000     0.165030000000     0.0112246  
C104     C      0.023020000000     0.569520000000     0.204850000000    -0.100642   
C105     C      0.165590000000     0.026640000000     0.433870000000     0.0120129  
C106     C      0.343700000000     0.959730000000     0.504770000000     0.0134037  
C107     C      0.357000000000     0.035180000000     0.466290000000     0.0567012  
C108     C      0.302030000000     0.952680000000     0.475470000000    -0.104783   
C109     C      0.213650000000     0.043700000000     0.442740000000    -0.101431   
C110     C      0.315170000000     0.027130000000     0.436640000000    -0.116689   
C111     C      0.239240000000     0.010030000000     0.470930000000     0.017321   
C112     C      0.282280000000     0.997160000000     0.461150000000     0.0245886  
C113     C      0.167870000000     0.981510000000     0.505910000000     0.0108951  
C114     C      0.216160000000     0.997140000000     0.514370000000    -0.100467   
C115     C      0.845210000000     0.998260000000     0.460780000000     0.0118649  
C116     C      0.666060000000     0.998680000000     0.555890000000     0.0146473  
C117     C      0.668230000000     0.928170000000     0.508580000000     0.0575091  
C118     C      0.709880000000     0.015310000000     0.534610000000    -0.103739   
C119     C      0.810710000000     0.962500000000     0.474420000000    -0.101039   
C120     C      0.711740000000     0.944530000000     0.485540000000    -0.115601   
C121     C      0.783510000000     0.979560000000     0.513870000000     0.0161664  
C122     C      0.737550000000     0.977200000000     0.515030000000     0.0232594  
C123     C      0.848580000000     0.027250000000     0.540360000000     0.0111469  
C124     C      0.811420000000     0.994230000000     0.554030000000    -0.100363   
C125     C      0.033670000000     0.683130000000     0.528660000000     0.013084   
C126     C      0.998660000000     0.859550000000     0.437920000000     0.0147963  
C127     C      0.039830000000     0.857760000000     0.512890000000     0.0573453  
C128     C      0.973910000000     0.815960000000     0.449890000000    -0.105366   
C129     C      0.048840000000     0.719040000000     0.495520000000    -0.101319   
C130     C      0.017120000000     0.813090000000     0.524060000000    -0.116102   
C131     C      0.008170000000     0.743660000000     0.477040000000     0.0161065  
C132     C      0.002200000000     0.788610000000     0.482070000000     0.0249079  
C133     C      0.958260000000     0.677920000000     0.489610000000     0.0112637  
C134     C      0.972820000000     0.713880000000     0.455560000000    -0.10094    
C135     C      0.019910000000     0.174170000000     0.542270000000     0.0114739  
C136     C      0.988490000000     0.360410000000     0.467770000000     0.0140827  
C137     C      0.060920000000     0.362820000000     0.513430000000     0.0566889  
C138     C      0.975470000000     0.316270000000     0.490160000000    -0.104324   
C139     C      0.047500000000     0.216530000000     0.532150000000    -0.101111   
C140     C      0.048170000000     0.317990000000     0.535870000000    -0.116133   
C141     C      0.021890000000     0.246040000000     0.499590000000     0.0164126  
C142     C      0.016890000000     0.291080000000     0.505990000000     0.0237931  
C143     C      0.981290000000     0.179820000000     0.466850000000     0.0114988  
C144     C      0.007480000000     0.222770000000     0.456660000000    -0.100747   
Cu1      Cu     0.012210000000     0.014210000000     0.530010000000     0.840958   
Cu2      Cu     0.004120000000     0.020570000000     0.447800000000     0.838492   
Cu3      Cu     0.050310000000     0.523590000000     0.510480000000     0.84362    
Cu4      Cu     0.968350000000     0.517630000000     0.497280000000     0.838353   
Cu5      Cu     0.505240000000     0.937740000000     0.503420000000     0.844555   
Cu6      Cu     0.512940000000     0.019820000000     0.504140000000     0.833935   
Cu7      Cu     0.548800000000     0.005800000000     0.004850000000     0.840226   
Cu8      Cu     0.466120000000     0.000180000000     0.001620000000     0.840183   
Cu9      Cu     0.009690000000     0.474440000000     0.005470000000     0.835391   
Cu10     Cu     0.010810000000     0.556850000000     0.002920000000     0.842101   
Cu11     Cu     0.510420000000     0.502190000000     0.074470000000     0.841469   
Cu12     Cu     0.502350000000     0.500710000000     0.992340000000     0.839087   
H1       H      0.718950000000     0.556680000000     0.950050000000     0.043221   
H2       H      0.842670000000     0.497830000000     0.072040000000     0.0274843  
H3       H      0.677100000000     0.449710000000     0.036100000000     0.0274194  
H4       H      0.738010000000     0.485860000000     0.077580000000     0.0431671  
H5       H      0.785670000000     0.449840000000     0.037130000000     0.0441854  
H6       H      0.787670000000     0.578470000000     0.965490000000     0.0493043  
H7       H      0.637020000000     0.545990000000     0.957140000000     0.03518    
H8       H      0.869950000000     0.453530000000     0.042180000000     0.0356618  
H9       H      0.709430000000     0.537930000000     0.077540000000     0.0512895  
H10      H      0.813800000000     0.530400000000     0.940320000000     0.0531053  
H11      H      0.653980000000     0.478650000000     0.083430000000     0.0364006  
H12      H      0.697230000000     0.582080000000     0.000600000000     0.0505925  
H13      H      0.812580000000     0.453650000000     0.984300000000     0.0521475  
H14      H      0.870800000000     0.578650000000     0.971630000000     0.029153   
H15      H      0.667870000000     0.494180000000     0.954280000000     0.0299425  
H16      H      0.808390000000     0.579040000000     0.071140000000     0.0338217  
H17      H      0.224320000000     0.568010000000     0.064530000000     0.0432272  
H18      H      0.337140000000     0.426930000000     0.031670000000     0.0273164  
H19      H      0.191600000000     0.485770000000     0.954010000000     0.0268011  
H20      H      0.226090000000     0.432090000000     0.007500000000     0.0430231  
H21      H      0.285440000000     0.458760000000     0.976610000000     0.0443583  
H22      H      0.284290000000     0.538280000000     0.100260000000     0.049508   
H23      H      0.149740000000     0.580480000000     0.030360000000     0.0367325  
H24      H      0.367990000000     0.448800000000     0.985110000000     0.0354157  
H25      H      0.185390000000     0.445910000000     0.048590000000     0.0525321  
H26      H      0.313640000000     0.561630000000     0.052920000000     0.0534763  
H27      H      0.149980000000     0.447030000000     0.974140000000     0.0357563  
H28      H      0.183990000000     0.527570000000     0.084540000000     0.0509729  
H29      H      0.314760000000     0.510530000000     0.976440000000     0.0537017  
H30      H      0.368560000000     0.530950000000     0.103560000000     0.0295925  
H31      H      0.192140000000     0.567550000000     0.989220000000     0.0289169  
H32      H      0.298630000000     0.437490000000     0.110710000000     0.0335741  
H33      H      0.577250000000     0.785630000000     0.050940000000     0.0431002  
H34      H      0.438230000000     0.671700000000     0.010450000000     0.0276173  
H35      H      0.498730000000     0.830360000000     0.942710000000     0.0270331  
H36      H      0.447400000000     0.778900000000     0.981020000000     0.0431592  
H37      H      0.476640000000     0.719330000000     0.955550000000     0.0438896  
H38      H      0.548600000000     0.724550000000     0.084210000000     0.0491076  
H39      H      0.579850000000     0.867250000000     0.036490000000     0.0358954  
H40      H      0.463490000000     0.638000000000     0.967740000000     0.0357118  
H41      H      0.450250000000     0.810370000000     0.031270000000     0.0521837  
H42      H      0.572840000000     0.692300000000     0.039430000000     0.0530358  
H43      H      0.452670000000     0.860770000000     0.966880000000     0.0361999  
H44      H      0.530400000000     0.814740000000     0.076400000000     0.0505555  
H45      H      0.527410000000     0.688830000000     0.961470000000     0.0525281  
H46      H      0.537070000000     0.642510000000     0.091880000000     0.0301378  
H47      H      0.578110000000     0.833810000000     0.986300000000     0.0293447  
H48      H      0.444520000000     0.714310000000     0.087980000000     0.033724   
H49      H      0.471110000000     0.280430000000     0.092420000000     0.0436527  
H50      H      0.517260000000     0.177870000000     0.948130000000     0.0276787  
H51      H      0.575480000000     0.332160000000     0.010890000000     0.0265546  
H52      H      0.534800000000     0.282430000000     0.959640000000     0.0432007  
H53      H      0.569230000000     0.226620000000     0.989360000000     0.0445152  
H54      H      0.440370000000     0.218420000000     0.061370000000     0.0496348  
H55      H      0.485900000000     0.361670000000     0.099770000000     0.0366593  
H56      H      0.562480000000     0.145450000000     0.970840000000     0.0361823  
H57      H      0.484050000000     0.312820000000     0.967190000000     0.0522091  
H58      H      0.487610000000     0.187590000000     0.083090000000     0.0534463  
H59      H      0.547470000000     0.364800000000     0.968810000000     0.0355619  
H60      H      0.443490000000     0.312220000000     0.048790000000     0.0513133  
H61      H      0.565640000000     0.192320000000     0.037720000000     0.0531458  
H62      H      0.438210000000     0.136490000000     0.044390000000     0.0298451  
H63      H      0.536440000000     0.329020000000     0.092590000000     0.0293483  
H64      H      0.436680000000     0.214060000000     0.956850000000     0.0336961  
H65      H      0.533950000000     0.920320000000     0.724290000000     0.0435508  
H66      H      0.492430000000     0.064130000000     0.832000000000     0.0278957  
H67      H      0.431910000000     0.004760000000     0.671050000000     0.0272393  
H68      H      0.472620000000     0.053900000000     0.721970000000     0.0432751  
H69      H      0.441330000000     0.026430000000     0.780680000000     0.0444533  
H70      H      0.569670000000     0.953590000000     0.783870000000     0.0495102  
H71      H      0.517600000000     0.912130000000     0.643910000000     0.0369956  
H72      H      0.447970000000     0.038670000000     0.863370000000     0.0363308  
H73      H      0.523820000000     0.046420000000     0.692190000000     0.0520712  
H74      H      0.523080000000     0.930130000000     0.814510000000     0.0532507  
H75      H      0.462030000000     0.045590000000     0.638680000000     0.0364288  
H76      H      0.562570000000     0.962800000000     0.691800000000     0.0517005  
H77      H      0.443960000000     0.975880000000     0.811840000000     0.0529964  
H78      H      0.573350000000     0.966800000000     0.866340000000     0.0285864  
H79      H      0.467670000000     0.922790000000     0.676550000000     0.0290199  
H80      H      0.572060000000     0.057840000000     0.792910000000     0.0337569  
H81      H      0.479990000000     0.920340000000     0.283770000000     0.0432512  
H82      H      0.520020000000     0.062790000000     0.175160000000     0.0274523  
H83      H      0.586050000000     0.000030000000     0.334480000000     0.0268445  
H84      H      0.545780000000     0.052070000000     0.285420000000     0.0428431  
H85      H      0.573870000000     0.026400000000     0.225290000000     0.0439347  
H86      H      0.446720000000     0.951210000000     0.223580000000     0.0492643  
H87      H      0.497080000000     0.911540000000     0.363630000000     0.0370349  
H88      H      0.565550000000     0.039540000000     0.143590000000     0.0356955  
H89      H      0.495280000000     0.045600000000     0.316350000000     0.0519237  
H90      H      0.493820000000     0.928100000000     0.193530000000     0.0529172  
H91      H      0.559100000000     0.042370000000     0.367700000000     0.0359336  
H92      H      0.453370000000     0.963900000000     0.316460000000     0.0513783  
H93      H      0.571470000000     0.975870000000     0.194280000000     0.0527451  
H94      H      0.443290000000     0.962380000000     0.140750000000     0.0292051  
H95      H      0.546790000000     0.920260000000     0.330300000000     0.0284784  
H96      H      0.440100000000     0.053890000000     0.213300000000     0.0335962  
H97      H      0.946550000000     0.450930000000     0.788670000000     0.043119   
H98      H      0.002750000000     0.579890000000     0.673200000000     0.0275866  
H99      H      0.056860000000     0.532990000000     0.828250000000     0.0275962  
H100     H      0.011580000000     0.582670000000     0.779370000000     0.043124   
H101     H      0.051360000000     0.546530000000     0.731020000000     0.0445517  
H102     H      0.924750000000     0.471340000000     0.720190000000     0.049107   
H103     H      0.966140000000     0.448350000000     0.869520000000     0.0359346  
H104     H      0.051840000000     0.555500000000     0.648580000000     0.0359785  
H105     H      0.963800000000     0.575410000000     0.814110000000     0.0518116  
H106     H      0.975190000000     0.446550000000     0.697960000000     0.052604   
H107     H      0.031570000000     0.576850000000     0.860670000000     0.0365266  
H108     H      0.923080000000     0.497520000000     0.819130000000     0.0503839  
H109     H      0.051310000000     0.494270000000     0.702890000000     0.0533827  
H110     H      0.932340000000     0.475580000000     0.635910000000     0.0278436  
H111     H      0.014700000000     0.450360000000     0.833510000000     0.0298578  
H112     H      0.918130000000     0.572930000000     0.699180000000     0.0337984  
H113     H      0.077740000000     0.466220000000     0.221550000000     0.0432359  
H114     H      0.009140000000     0.591620000000     0.338170000000     0.0267255  
H115     H      0.962140000000     0.540470000000     0.178250000000     0.0274512  
H116     H      0.003870000000     0.593580000000     0.225820000000     0.0429591  
H117     H      0.967710000000     0.557260000000     0.276880000000     0.0442401  
H118     H      0.100100000000     0.493190000000     0.288260000000     0.0495886  
H119     H      0.056940000000     0.458050000000     0.141730000000     0.0351425  
H120     H      0.963230000000     0.559880000000     0.360330000000     0.035103   
H121     H      0.052390000000     0.588590000000     0.191630000000     0.051524   
H122     H      0.052230000000     0.462830000000     0.309420000000     0.0533815  
H123     H      0.985890000000     0.583770000000     0.143990000000     0.0366075  
H124     H      0.097690000000     0.512720000000     0.188570000000     0.0502631  
H125     H      0.970570000000     0.503550000000     0.302160000000     0.0529329  
H126     H      0.091920000000     0.495450000000     0.371880000000     0.0290497  
H127     H      0.008600000000     0.459960000000     0.178140000000     0.0298812  
H128     H      0.093460000000     0.595220000000     0.310780000000     0.033512   
H129     H      0.229610000000     0.048960000000     0.409430000000     0.043607   
H130     H      0.332520000000     0.972280000000     0.538110000000     0.0276159  
H131     H      0.169180000000     0.947800000000     0.489980000000     0.0300165  
H132     H      0.234360000000     0.971300000000     0.533980000000     0.0436822  
H133     H      0.277530000000     0.930390000000     0.492560000000     0.0447896  
H134     H      0.300800000000     0.060190000000     0.427310000000     0.0494259  
H135     H      0.146200000000     0.053690000000     0.416860000000     0.034595   
H136     H      0.360050000000     0.926690000000     0.510510000000     0.0362092  
H137     H      0.215000000000     0.027410000000     0.536110000000     0.0515436  
H138     H      0.325700000000     0.010280000000     0.405030000000     0.0528428  
H139     H      0.150650000000     0.977410000000     0.538810000000     0.0373622  
H140     H      0.212370000000     0.076370000000     0.460640000000     0.0510086  
H141     H      0.312550000000     0.934360000000     0.444700000000     0.0522447  
H142     H      0.382610000000     0.052050000000     0.444830000000     0.0287956  
H143     H      0.167330000000     0.997590000000     0.410500000000     0.031312   
H144     H      0.309450000000     0.056780000000     0.536830000000     0.0339736  
H145     H      0.789500000000     0.955550000000     0.444490000000     0.0430023  
H146     H      0.674630000000     0.981730000000     0.588010000000     0.0273747  
H147     H      0.832420000000     0.060050000000     0.532870000000     0.02724    
H148     H      0.791260000000     0.008760000000     0.581730000000     0.0429317  
H149     H      0.728270000000     0.035630000000     0.559740000000     0.044066   
H150     H      0.732510000000     0.914630000000     0.477140000000     0.0490491  
H151     H      0.866100000000     0.984480000000     0.433010000000     0.0357478  
H152     H      0.644670000000     0.028030000000     0.564630000000     0.0351124  
H153     H      0.827780000000     0.963840000000     0.568220000000     0.0518104  
H154     H      0.702830000000     0.961650000000     0.453590000000     0.0531175  
H155     H      0.871730000000     0.032500000000     0.569240000000     0.0357797  
H156     H      0.828360000000     0.931050000000     0.484030000000     0.0508323  
H157     H      0.701150000000     0.038490000000     0.506710000000     0.053343   
H158     H      0.648450000000     0.909560000000     0.482880000000     0.0285341  
H159     H      0.826870000000     0.028060000000     0.447670000000     0.0292625  
H160     H      0.716260000000     0.904150000000     0.578080000000     0.0337514  
H161     H      0.074460000000     0.741240000000     0.511010000000     0.0448246  
H162     H      0.028380000000     0.851340000000     0.416670000000     0.0303036  
H163     H      0.939580000000     0.694530000000     0.517410000000     0.0295969  
H164     H      0.942110000000     0.732470000000     0.445180000000     0.04283    
H165     H      0.967660000000     0.797800000000     0.417920000000     0.0438361  
H166     H      0.038900000000     0.793110000000     0.546740000000     0.0495471  
H167     H      0.063440000000     0.663380000000     0.539800000000     0.0355721  
H168     H      0.975570000000     0.880800000000     0.417560000000     0.0336168  
H169     H      0.987380000000     0.697520000000     0.425330000000     0.0505685  
H170     H      0.986240000000     0.820390000000     0.543950000000     0.0550793  
H171     H      0.934730000000     0.654330000000     0.472660000000     0.0358688  
H172     H      0.066210000000     0.702270000000     0.467020000000     0.0541313  
H173     H      0.940890000000     0.823820000000     0.465720000000     0.050615   
H174     H      0.042870000000     0.876790000000     0.544840000000     0.0296548  
H175     H      0.019550000000     0.700110000000     0.558800000000     0.0265026  
H176     H      0.096910000000     0.816710000000     0.460410000000     0.0347261  
H177     H      0.053700000000     0.233350000000     0.564810000000     0.0433366  
H178     H      0.004550000000     0.352710000000     0.434930000000     0.0276716  
H179     H      0.947740000000     0.189370000000     0.480570000000     0.0275061  
H180     H      0.987620000000     0.244090000000     0.433550000000     0.0431451  
H181     H      0.953390000000     0.296890000000     0.467330000000     0.0441745  
H182     H      0.079970000000     0.299820000000     0.543580000000     0.0493196  
H183     H      0.040860000000     0.151620000000     0.563470000000     0.0361957  
H184     H      0.957200000000     0.379580000000     0.460420000000     0.0360897  
H185     H      0.038540000000     0.213560000000     0.437870000000     0.0519234  
H186     H      0.030740000000     0.324770000000     0.568200000000     0.0528567  
H187     H      0.975270000000     0.161510000000     0.434920000000     0.0362488  
H188     H      0.080570000000     0.207140000000     0.517270000000     0.0510904  
H189     H      0.954490000000     0.323960000000     0.520120000000     0.0528205  
H190     H      0.078080000000     0.383450000000     0.539440000000     0.0292933  
H191     H      0.989650000000     0.183820000000     0.562150000000     0.0295541  
H192     H      0.087100000000     0.320160000000     0.441490000000     0.0337093  
N1       N      0.874820000000     0.519380000000     0.012390000000    -0.179085   
N2       N      0.640990000000     0.508200000000     0.018570000000    -0.174728   
N3       N      0.372240000000     0.486910000000     0.046740000000    -0.17901    
N4       N      0.145900000000     0.514500000000     0.000330000000    -0.174834   
N5       N      0.495920000000     0.636200000000     0.032730000000    -0.178181   
N6       N      0.517270000000     0.868340000000     0.999660000000    -0.174016   
N7       N      0.497640000000     0.137400000000     0.003160000000    -0.178934   
N8       N      0.518720000000     0.367270000000     0.035400000000    -0.174943   
N9       N      0.513330000000     0.006990000000     0.868560000000    -0.1792     
N10      N      0.488400000000     0.978160000000     0.637140000000    -0.174815   
N11      N      0.501600000000     0.005000000000     0.138150000000    -0.178803   
N12      N      0.529220000000     0.976390000000     0.370130000000    -0.174595   
N13      N      0.989120000000     0.519890000000     0.637620000000    -0.178298   
N14      N      0.003010000000     0.510710000000     0.869110000000    -0.173767   
N15      N      0.029720000000     0.531990000000     0.370730000000    -0.178741   
N16      N      0.017420000000     0.518680000000     0.139130000000    -0.174325   
N17      N      0.375160000000     0.992770000000     0.484900000000    -0.178278   
N18      N      0.143230000000     0.012220000000     0.475670000000    -0.173757   
N19      N      0.642480000000     0.966490000000     0.526450000000    -0.178593   
N20      N      0.872650000000     0.011890000000     0.499810000000    -0.174171   
N21      N      0.014110000000     0.883060000000     0.478710000000    -0.179212   
N22      N      0.998230000000     0.654990000000     0.508290000000    -0.174696   
N23      N      0.020730000000     0.386140000000     0.495560000000    -0.178344   
N24      N      0.004980000000     0.152090000000     0.500470000000    -0.174126   
O1       O      0.013400000000     0.082180000000     0.531210000000    -0.400492   
O2       O      0.011890000000     0.947030000000     0.520920000000    -0.401424   
O3       O      0.079780000000     0.012540000000     0.519560000000    -0.398446   
O4       O      0.943180000000     0.015460000000     0.532020000000    -0.396176   
O5       O      0.936820000000     0.015940000000     0.457460000000    -0.401196   
O6       O      0.072790000000     0.023680000000     0.445870000000    -0.397842   
O7       O      0.006940000000     0.952450000000     0.446390000000    -0.398451   
O8       O      0.000920000000     0.088100000000     0.457680000000    -0.397671   
O9       O      0.056730000000     0.524030000000     0.442410000000    -0.396487   
O10      O      0.035980000000     0.523410000000     0.576770000000    -0.401662   
O11      O      0.051270000000     0.455400000000     0.509820000000    -0.39696    
O12      O      0.040980000000     0.591040000000     0.510810000000    -0.399163   
O13      O      0.966440000000     0.585350000000     0.502260000000    -0.399533   
O14      O      0.978440000000     0.450480000000     0.491900000000    -0.399571   
O15      O      0.962550000000     0.511770000000     0.565500000000    -0.394092   
O16      O      0.982360000000     0.525110000000     0.431080000000    -0.399295   
O17      O      0.511280000000     0.941580000000     0.436080000000    -0.403137   
O18      O      0.500110000000     0.941580000000     0.570860000000    -0.402585   
O19      O      0.437500000000     0.948700000000     0.498010000000    -0.39723    
O20      O      0.573730000000     0.935670000000     0.509070000000    -0.395899   
O21      O      0.578780000000     0.009440000000     0.519900000000    -0.399118   
O22      O      0.446370000000     0.022310000000     0.488840000000    -0.397288   
O23      O      0.497000000000     0.016240000000     0.570640000000    -0.395878   
O24      O      0.527730000000     0.014430000000     0.437370000000    -0.396025   
O25      O      0.541500000000     0.010380000000     0.072440000000    -0.400306   
O26      O      0.547730000000     0.001100000000     0.937020000000    -0.398677   
O27      O      0.539920000000     0.073150000000     0.999710000000    -0.398667   
O28      O      0.549120000000     0.937790000000     0.009160000000    -0.398497   
O29      O      0.475320000000     0.932870000000     0.995780000000    -0.398325   
O30      O      0.465310000000     0.067880000000     0.007610000000    -0.397363   
O31      O      0.472790000000     0.006910000000     0.934070000000    -0.398847   
O32      O      0.468010000000     0.994840000000     0.069560000000    -0.397307   
O33      O      0.018330000000     0.480340000000     0.072650000000    -0.400203   
O34      O      0.001240000000     0.476410000000     0.937910000000    -0.399207   
O35      O      0.077890000000     0.477660000000     0.997330000000    -0.39717    
O36      O      0.941640000000     0.480200000000     0.013830000000    -0.397528   
O37      O      0.942780000000     0.553910000000     0.001750000000    -0.400944   
O38      O      0.078800000000     0.552000000000     0.004620000000    -0.402347   
O39      O      0.011960000000     0.550280000000     0.934770000000    -0.396481   
O40      O      0.009370000000     0.554520000000     0.071340000000    -0.396329   
O41      O      0.510480000000     0.434350000000     0.071600000000    -0.400116   
O42      O      0.509480000000     0.569940000000     0.069250000000    -0.398457   
O43      O      0.441840000000     0.501510000000     0.076940000000    -0.396033   
O44      O      0.578180000000     0.502080000000     0.063260000000    -0.398073   
O45      O      0.569690000000     0.511210000000     0.989480000000    -0.401421   
O46      O      0.435830000000     0.489570000000     0.003300000000    -0.401276   
O47      O      0.492080000000     0.568170000000     0.996520000000    -0.397399   
O48      O      0.513840000000     0.433630000000     0.996840000000    -0.398087   
S1       S      0.840040000000     0.596730000000     0.042650000000    -0.0524665  
S2       S      0.334890000000     0.462230000000     0.124930000000    -0.0523442  
S3       S      0.468080000000     0.679440000000     0.106670000000    -0.0528841  
S4       S      0.420220000000     0.176920000000     0.978430000000    -0.0518384  
S5       S      0.589560000000     0.034830000000     0.828730000000    -0.0525097  
S6       S      0.424130000000     0.030250000000     0.177180000000    -0.0527219  
S7       S      0.906640000000     0.545110000000     0.664380000000    -0.0504434  
S8       S      0.108330000000     0.568360000000     0.345060000000    -0.0508579  
S9       S      0.344100000000     0.073090000000     0.511110000000    -0.0506506  
S10      S      0.680740000000     0.889270000000     0.552650000000    -0.0533321  
S11      S      0.096230000000     0.848690000000     0.493440000000    -0.0597536  
S12      S      0.100990000000     0.354080000000     0.469290000000    -0.051435   


