data_structure

_audit_creation_method RASPA-1.0
_audit_creation_date 2023-5-25
_audit_author_name 'Poobodin Mano'

_cell_length_a    29.47
_cell_length_b    29.4009
_cell_length_c    29.4001
_cell_angle_alpha 89.9998
_cell_angle_beta  89.9998
_cell_angle_gamma 89.9998
_cell_volume      25473.6

_symmetry_cell_setting          triclinic
_symmetry_space_group_name_Hall 'P 1'
_symmetry_space_group_name_H-M  'P 1'
_symmetry_Int_Tables_number     1

_symmetry_equiv_pos_as_xyz 'x,y,z'

loop_
_atom_site_label
_atom_site_type_symbol
_atom_site_fract_x
_atom_site_fract_y
_atom_site_fract_z
_atom_site_charge
C1       C      0.987830000000     0.147930000000     0.505600000000     0.402762   
C2       C      0.967480000000     0.968850000000     0.492050000000     0.401107   
C3       C      0.067570000000     0.048590000000     0.506020000000     0.402143   
C4       C      0.888790000000     0.067990000000     0.491080000000     0.402762   
C5       C      0.012620000000     0.569510000000     0.434550000000     0.402127   
C6       C      0.019370000000     0.548220000000     0.614070000000     0.401758   
C7       C      0.024760000000     0.469450000000     0.512260000000     0.401379   
C8       C      0.008170000000     0.648260000000     0.534500000000     0.403128   
C9       C      0.471910000000     0.007020000000     0.586960000000     0.399708   
C10      C      0.486400000000     0.006110000000     0.406520000000     0.401418   
C11      C      0.568310000000     0.010890000000     0.505160000000     0.400812   
C12      C      0.388830000000     0.002860000000     0.488900000000     0.40023    
C13      C      0.514300000000     0.970580000000     0.087080000000     0.400635   
C14      C      0.477910000000     0.977500000000     0.909850000000     0.402156   
C15      C      0.498650000000     0.065050000000     0.000880000000     0.402862   
C16      C      0.494460000000     0.884120000000     0.994700000000     0.402213   
C17      C      0.049270000000     0.517920000000     0.115390000000     0.403843   
C18      C      0.054570000000     0.507940000000     0.934910000000     0.403179   
C19      C      0.141130000000     0.504930000000     0.028470000000     0.402815   
C20      C      0.961420000000     0.520850000000     0.021800000000     0.402862   
C21      C      0.559970000000     0.382990000000     0.038840000000     0.401048   
C22      C      0.547190000000     0.563570000000     0.032490000000     0.400732   
C23      C      0.464950000000     0.465690000000     0.022560000000     0.401599   
C24      C      0.643180000000     0.479590000000     0.047730000000     0.401362   
C25      C      0.719350000000     0.458700000000     0.020280000000     0.0128512  
C26      C      0.890950000000     0.564540000000     0.036910000000     0.0172587  
C27      C      0.888470000000     0.488370000000     0.996470000000     0.110499   
C28      C      0.851240000000     0.550000000000     0.068000000000    -0.107485   
C29      C      0.752640000000     0.493280000000     0.001380000000    -0.0987317  
C30      C      0.850520000000     0.472730000000     0.028200000000    -0.130914   
C31      C      0.777550000000     0.515690000000     0.040390000000     0.0143461  
C32      C      0.823470000000     0.513190000000     0.044980000000     0.0342743  
C33      C      0.710500000000     0.504810000000     0.092120000000     0.00996837 
C34      C      0.747160000000     0.538580000000     0.075300000000    -0.0997703  
C35      C      0.390670000000     0.436670000000     0.048960000000     0.0115139  
C36      C      0.216730000000     0.537500000000     0.012720000000     0.0182724  
C37      C      0.208830000000     0.462900000000     0.055450000000     0.109094   
C38      C      0.254980000000     0.517620000000     0.983490000000    -0.108295   
C39      C      0.347260000000     0.463440000000     0.058430000000    -0.0981674  
C40      C      0.248330000000     0.443260000000     0.027680000000    -0.130175   
C41      C      0.324990000000     0.479410000000     0.014640000000     0.0135447  
C42      C      0.279020000000     0.480690000000     0.010040000000     0.0335375  
C43      C      0.398280000000     0.473750000000     0.972200000000     0.0118984  
C44      C      0.356160000000     0.503030000000     0.981080000000    -0.0997104  
C45      C      0.564500000000     0.636560000000     0.994010000000     0.0111067  
C46      C      0.454720000000     0.811280000000     0.008910000000     0.0180335  
C47      C      0.529190000000     0.812960000000     0.966100000000     0.11008    
C48      C      0.471220000000     0.770940000000     0.037770000000    -0.107539   
C49      C      0.530610000000     0.670740000000     0.974690000000    -0.0984175  
C50      C      0.546530000000     0.772890000000     0.994490000000    -0.130633   
C51      C      0.509000000000     0.698070000000     0.012690000000     0.0133516  
C52      C      0.507540000000     0.744440000000     0.012570000000     0.0339828  
C53      C      0.521850000000     0.635470000000     0.068430000000     0.0106961  
C54      C      0.487110000000     0.669690000000     0.049720000000    -0.0997095  
C55      C      0.547890000000     0.311050000000     0.081240000000     0.0108205  
C56      C      0.533610000000     0.136260000000     0.973200000000     0.0190187  
C57      C      0.466010000000     0.138670000000     0.026240000000     0.109417   
C58      C      0.558610000000     0.170980000000     0.002310000000    -0.107348   
C59      C      0.512160000000     0.275130000000     0.068470000000    -0.0992035  
C60      C      0.490220000000     0.174980000000     0.055620000000    -0.130111   
C61      C      0.528800000000     0.246970000000     0.028540000000     0.0136729  
C62      C      0.524970000000     0.200760000000     0.027470000000     0.0330674  
C63      C      0.579720000000     0.309740000000     0.001950000000     0.0121025  
C64      C      0.544750000000     0.274240000000     0.987660000000    -0.0990064  
C65      C      0.451530000000     0.045940000000     0.658910000000     0.0103321  
C66      C      0.499230000000     0.954920000000     0.831860000000     0.0185895  
C67      C      0.424860000000     0.995810000000     0.846940000000     0.109889   
C68      C      0.508020000000     0.985240000000     0.790800000000    -0.107332   
C69      C      0.423910000000     0.029760000000     0.700400000000    -0.100161   
C70      C      0.433260000000     0.026510000000     0.805020000000    -0.130939   
C71      C      0.451500000000     0.995480000000     0.727080000000     0.0154368  
C72      C      0.463570000000     0.002120000000     0.771300000000     0.0335349  
C73      C      0.495700000000     0.971900000000     0.659260000000     0.0113212  
C74      C      0.467690000000     0.955310000000     0.699460000000    -0.0995703  
C75      C      0.563940000000     0.987060000000     0.153260000000     0.0107748  
C76      C      0.471720000000     0.966520000000     0.333890000000     0.0184346  
C77      C      0.509410000000     0.044180000000     0.334540000000     0.108497   
C78      C      0.507290000000     0.949090000000     0.300670000000    -0.107199   
C79      C      0.551000000000     0.016050000000     0.195100000000    -0.0997627  
C80      C      0.544550000000     0.027090000000     0.299140000000    -0.1297     
C81      C      0.519090000000     0.989740000000     0.225990000000     0.0155383  
C82      C      0.524570000000     0.988090000000     0.271990000000     0.0322767  
C83      C      0.492710000000     0.940500000000     0.162290000000     0.0127936  
C84      C      0.477990000000     0.969240000000     0.202700000000    -0.0993541  
C85      C      0.983680000000     0.520980000000     0.685230000000     0.010924   
C86      C      0.079590000000     0.541750000000     0.862190000000     0.0190605  
C87      C      0.042450000000     0.464010000000     0.864120000000     0.110335   
C88      C      0.050610000000     0.555340000000     0.821460000000    -0.107485   
C89      C      0.002710000000     0.487330000000     0.720440000000    -0.0999065  
C90      C      0.012210000000     0.477330000000     0.823380000000    -0.131117   
C91      C      0.038190000000     0.511170000000     0.749050000000     0.0142511  
C92      C      0.035420000000     0.513680000000     0.795200000000     0.0340154  
C93      C      0.056940000000     0.565820000000     0.687130000000     0.011616   
C94      C      0.076270000000     0.532900000000     0.722180000000    -0.0993086  
C95      C      0.048540000000     0.594520000000     0.362510000000     0.0121221  
C96      C      0.027050000000     0.485090000000     0.189510000000     0.0181817  
C97      C      0.075380000000     0.556300000000     0.185530000000     0.109884   
C98      C      0.996310000000     0.507110000000     0.225480000000    -0.107763   
C99      C      0.062800000000     0.562300000000     0.324390000000    -0.0983576  
C100     C      0.045450000000     0.578720000000     0.221690000000    -0.130634   
C101     C      0.021840000000     0.546280000000     0.297370000000     0.0134126  
C102     C      0.022640000000     0.543160000000     0.251200000000     0.0338396  
C103     C      0.969870000000     0.561550000000     0.362560000000     0.0116455  
C104     C      0.982850000000     0.527440000000     0.325280000000    -0.0997093  
C105     C      0.316490000000     0.961280000000     0.500250000000     0.0106539  
C106     C      0.143660000000     0.067070000000     0.476010000000     0.0186693  
C107     C      0.135050000000     0.021840000000     0.548980000000     0.109049   
C108     C      0.179350000000     0.033750000000     0.459000000000    -0.107378   
C109     C      0.275510000000     0.976530000000     0.528960000000    -0.0995919  
C110     C      0.172280000000     0.988480000000     0.532580000000    -0.130125   
C111     C      0.249380000000     0.013330000000     0.504040000000     0.014659   
C112     C      0.203430000000     0.012060000000     0.498950000000     0.0328709  
C113     C      0.317760000000     0.036960000000     0.459910000000     0.0117969  
C114     C      0.277740000000     0.053390000000     0.488320000000    -0.0991899  
C115     C      0.644210000000     0.976830000000     0.493590000000     0.0113386  
C116     C      0.814590000000     0.090820000000     0.523670000000     0.018851   
C117     C      0.819400000000     0.056480000000     0.445030000000     0.109988   
C118     C      0.776690000000     0.057830000000     0.536590000000    -0.106872   
C119     C      0.683480000000     0.997700000000     0.466320000000    -0.0990492  
C120     C      0.782450000000     0.021520000000     0.457470000000    -0.130811   
C121     C      0.706230000000     0.034990000000     0.493790000000     0.0132645  
C122     C      0.752120000000     0.040330000000     0.494650000000     0.0335958  
C123     C      0.635150000000     0.049290000000     0.538350000000     0.011915   
C124     C      0.674560000000     0.071030000000     0.512710000000    -0.0987579  
C125     C      0.979540000000     0.896840000000     0.450250000000     0.0118182  
C126     C      0.962750000000     0.716350000000     0.555460000000     0.0184734  
C127     C      0.042480000000     0.724500000000     0.524910000000     0.11019    
C128     C      0.945830000000     0.752700000000     0.522260000000    -0.106947   
C129     C      0.007060000000     0.856690000000     0.468770000000    -0.0987288  
C130     C      0.025990000000     0.759020000000     0.489230000000    -0.131177   
C131     C      0.979260000000     0.829480000000     0.502780000000     0.0129491  
C132     C      0.984230000000     0.783540000000     0.506720000000     0.033926   
C133     C      0.931230000000     0.898340000000     0.520440000000     0.0120582  
C134     C      0.955970000000     0.857000000000     0.539860000000    -0.098524   
C135     C      0.070460000000     0.399170000000     0.517670000000     0.0117855  
C136     C      0.975150000000     0.224390000000     0.473080000000     0.018615   
C137     C      0.012510000000     0.214850000000     0.550420000000     0.10981    
C138     C      0.010770000000     0.259600000000     0.459920000000    -0.107428   
C139     C      0.057900000000     0.353660000000     0.540050000000    -0.100202   
C140     C      0.048950000000     0.250200000000     0.536990000000    -0.13087    
C141     C      0.024950000000     0.327910000000     0.510030000000     0.0158632  
C142     C      0.029270000000     0.282520000000     0.502080000000     0.0329627  
C143     C      0.996140000000     0.400060000000     0.474990000000     0.0119812  
C144     C      0.983140000000     0.354260000000     0.495530000000    -0.099246   
Cu1      Cu     0.974410000000     0.055640000000     0.540370000000     0.831958   
Cu2      Cu     0.981850000000     0.061020000000     0.457240000000     0.84178    
Cu3      Cu     0.057860000000     0.563040000000     0.523300000000     0.84247    
Cu4      Cu     0.974580000000     0.554340000000     0.525220000000     0.83956    
Cu5      Cu     0.480490000000     0.965020000000     0.497020000000     0.839739   
Cu6      Cu     0.476840000000     0.048560000000     0.496450000000     0.831985   
Cu7      Cu     0.537270000000     0.973970000000     0.989640000000     0.840264   
Cu8      Cu     0.455440000000     0.975220000000     0.007240000000     0.835128   
Cu9      Cu     0.047150000000     0.471280000000     0.027360000000     0.841575   
Cu10     Cu     0.055460000000     0.554680000000     0.023000000000     0.839159   
Cu11     Cu     0.547770000000     0.474320000000     0.077010000000     0.834289   
Cu12     Cu     0.560110000000     0.472270000000     0.994050000000     0.84378    
H1       H      0.775000000000     0.477360000000     0.975620000000     0.0445431  
H2       H      0.876960000000     0.584320000000     0.007870000000     0.0319969  
H3       H      0.727100000000     0.479170000000     0.114410000000     0.0289373  
H4       H      0.766410000000     0.550620000000     0.105460000000     0.0421119  
H5       H      0.830690000000     0.580800000000     0.075400000000     0.0443263  
H6       H      0.829930000000     0.445680000000     0.011960000000     0.0511985  
H7       H      0.700640000000     0.442440000000     0.991750000000     0.03462    
H8       H      0.913840000000     0.587400000000     0.056460000000     0.0324253  
H9       H      0.730460000000     0.568470000000     0.059310000000     0.0496767  
H10      H      0.866300000000     0.456230000000     0.058330000000     0.0581295  
H11      H      0.685140000000     0.523610000000     0.112880000000     0.0344054  
H12      H      0.733260000000     0.519920000000     0.982850000000     0.0546235  
H13      H      0.864830000000     0.536660000000     0.100640000000     0.0498521  
H14      H      0.909570000000     0.458100000000     0.988010000000     0.0132732  
H15      H      0.738850000000     0.431470000000     0.037850000000     0.0258566  
H16      H      0.852710000000     0.479810000000     0.936660000000     0.0748999  
H17      H      0.895290000000     0.518740000000     0.933540000000     0.0839151  
H18      H      0.324910000000     0.442760000000     0.080490000000     0.043632   
H19      H      0.231980000000     0.556340000000     0.041760000000     0.0315308  
H20      H      0.387790000000     0.442550000000     0.953540000000     0.0284074  
H21      H      0.339320000000     0.508420000000     0.947690000000     0.0421355  
H22      H      0.277800000000     0.546200000000     0.974220000000     0.0443011  
H23      H      0.266160000000     0.416440000000     0.047210000000     0.0506904  
H24      H      0.408590000000     0.430160000000     0.081590000000     0.0346858  
H25      H      0.197570000000     0.562390000000     0.991670000000     0.033287   
H26      H      0.366480000000     0.536630000000     0.995010000000     0.0499802  
H27      H      0.233830000000     0.425470000000     0.997630000000     0.0561509  
H28      H      0.421870000000     0.493240000000     0.950020000000     0.0349659  
H29      H      0.356290000000     0.494130000000     0.078570000000     0.0531337  
H30      H      0.240690000000     0.503000000000     0.951700000000     0.0507443  
H31      H      0.184320000000     0.434810000000     0.061900000000     0.0134826  
H32      H      0.380910000000     0.403050000000     0.034630000000     0.0258115  
H33      H      0.238490000000     0.452040000000     0.118220000000     0.0753087  
H34      H      0.198850000000     0.494110000000     0.117560000000     0.08261    
H35      H      0.546950000000     0.691540000000     0.947920000000     0.0433712  
H36      H      0.434790000000     0.797890000000     0.979700000000     0.0316366  
H37      H      0.548440000000     0.654510000000     0.087380000000     0.0285723  
H38      H      0.475230000000     0.690480000000     0.078890000000     0.0420771  
H39      H      0.440990000000     0.749600000000     0.045160000000     0.0442151  
H40      H      0.572230000000     0.753560000000     0.974990000000     0.0512982  
H41      H      0.577440000000     0.614800000000     0.965950000000     0.0354706  
H42      H      0.431570000000     0.832380000000     0.030030000000     0.0327575  
H43      H      0.457490000000     0.651190000000     0.035380000000     0.0498378  
H44      H      0.565090000000     0.786820000000     0.024320000000     0.0577737  
H45      H      0.504260000000     0.612770000000     0.093000000000     0.0358284  
H46      H      0.503230000000     0.651530000000     0.957140000000     0.0523781  
H47      H      0.485300000000     0.783550000000     0.070500000000     0.0503863  
H48      H      0.558780000000     0.835200000000     0.958320000000     0.0136301  
H49      H      0.593900000000     0.655750000000     0.007970000000     0.0264596  
H50      H      0.536310000000     0.780760000000     0.904000000000     0.0757512  
H51      H      0.497540000000     0.823660000000     0.904380000000     0.0843695  
H52      H      0.506250000000     0.254040000000     0.099250000000     0.0416291  
H53      H      0.515780000000     0.154720000000     0.945420000000     0.0292235  
H54      H      0.611060000000     0.291650000000     0.012810000000     0.026108   
H55      H      0.558510000000     0.253570000000     0.959400000000     0.0430189  
H56      H      0.583400000000     0.189730000000     0.981180000000     0.0443622  
H57      H      0.463860000000     0.197730000000     0.070170000000     0.0508305  
H58      H      0.533470000000     0.333470000000     0.108040000000     0.035402   
H59      H      0.558760000000     0.113310000000     0.956860000000     0.0335903  
H60      H      0.514810000000     0.292260000000     0.973340000000     0.0538196  
H61      H      0.507900000000     0.158050000000     0.084410000000     0.05418    
H62      H      0.588700000000     0.331160000000     0.972130000000     0.0349364  
H63      H      0.479790000000     0.292130000000     0.059110000000     0.0498982  
H64      H      0.579120000000     0.152370000000     0.028020000000     0.0533102  
H65      H      0.445790000000     0.116810000000     0.049640000000     0.0125612  
H66      H      0.577880000000     0.293360000000     0.095930000000     0.0280631  
H67      H      0.409280000000     0.177460000000     0.012030000000     0.0764394  
H68      H      0.420230000000     0.136050000000     0.973140000000     0.0869645  
H69      H      0.414920000000     0.060290000000     0.720680000000     0.042019   
H70      H      0.483030000000     0.922960000000     0.819780000000     0.0281339  
H71      H      0.527740000000     0.986930000000     0.672460000000     0.026612   
H72      H      0.486830000000     0.929750000000     0.719480000000     0.0435046  
H73      H      0.529900000000     0.967370000000     0.765890000000     0.0445465  
H74      H      0.399850000000     0.035920000000     0.790310000000     0.0508634  
H75      H      0.429190000000     0.067200000000     0.637050000000     0.0346855  
H76      H      0.532250000000     0.945370000000     0.847420000000     0.0329299  
H77      H      0.437400000000     0.937120000000     0.686130000000     0.0525436  
H78      H      0.450290000000     0.058400000000     0.816030000000     0.054843   
H79      H      0.505190000000     0.942150000000     0.637970000000     0.0360856  
H80      H      0.391920000000     0.013500000000     0.688690000000     0.0492878  
H81      H      0.527870000000     0.015300000000     0.802220000000     0.0529339  
H82      H      0.407610000000     0.016980000000     0.873210000000     0.0117973  
H83      H      0.479820000000     0.067830000000     0.671090000000     0.0293714  
H84      H      0.363080000000     0.970690000000     0.825170000000     0.0766499  
H85      H      0.390780000000     0.936470000000     0.862660000000     0.0881492  
H86      H      0.582990000000     0.025300000000     0.212820000000     0.041793   
H87      H      0.441640000000     0.978050000000     0.314150000000     0.0292331  
H88      H      0.511440000000     0.910370000000     0.175390000000     0.0257627  
H89      H      0.455880000000     0.948820000000     0.225290000000     0.0435827  
H90      H      0.493990000000     0.920060000000     0.280640000000     0.0442729  
H91      H      0.555090000000     0.056160000000     0.277480000000     0.0505384  
H92      H      0.582870000000     0.008720000000     0.128720000000     0.0334035  
H93      H      0.460370000000     0.937950000000     0.355860000000     0.0341773  
H94      H      0.456480000000     0.997610000000     0.190030000000     0.054707   
H95      H      0.575290000000     0.014730000000     0.317250000000     0.0539258  
H96      H      0.462170000000     0.927670000000     0.144150000000     0.0342386  
H97      H      0.533990000000     0.047840000000     0.183790000000     0.0493683  
H98      H      0.536260000000     0.935200000000     0.320520000000     0.0530393  
H99      H      0.527330000000     0.068090000000     0.357820000000     0.0127721  
H100     H      0.586860000000     0.959210000000     0.164560000000     0.0286386  
H101     H      0.486150000000     0.097970000000     0.295780000000     0.0765003  
H102     H      0.448530000000     0.078950000000     0.335340000000     0.0874259  
H103     H      0.973630000000     0.474640000000     0.740800000000     0.0418497  
H104     H      0.112690000000     0.528950000000     0.849300000000     0.0287931  
H105     H      0.042160000000     0.595380000000     0.705530000000     0.0264032  
H106     H      0.102170000000     0.550050000000     0.743450000000     0.0431867  
H107     H      0.069010000000     0.580820000000     0.800750000000     0.0447143  
H108     H      0.005120000000     0.446030000000     0.803430000000     0.0506788  
H109     H      0.960490000000     0.502170000000     0.662060000000     0.0351367  
H110     H      0.086830000000     0.572470000000     0.883000000000     0.0331296  
H111     H      0.094640000000     0.505460000000     0.703800000000     0.0524949  
H112     H      0.979290000000     0.490810000000     0.836020000000     0.0540269  
H113     H      0.085050000000     0.578940000000     0.665610000000     0.0351222  
H114     H      0.018490000000     0.457910000000     0.702730000000     0.0495601  
H115     H      0.019730000000     0.572920000000     0.834240000000     0.0531005  
H116     H      0.021930000000     0.441440000000     0.886590000000     0.0115645  
H117     H      0.963320000000     0.547210000000     0.703340000000     0.0290479  
H118     H      0.071820000000     0.408010000000     0.833480000000     0.0763759  
H119     H      0.103400000000     0.431420000000     0.875890000000     0.0877132  
H120     H      0.089580000000     0.578650000000     0.303680000000     0.0436436  
H121     H      0.053370000000     0.464430000000     0.207090000000     0.0314666  
H122     H      0.955070000000     0.592300000000     0.346220000000     0.0276993  
H123     H      0.952040000000     0.521610000000     0.304300000000     0.0418854  
H124     H      0.984100000000     0.479440000000     0.248100000000     0.0441803  
H125     H      0.064950000000     0.604660000000     0.240780000000     0.0509765  
H126     H      0.078400000000     0.602350000000     0.384250000000     0.0342719  
H127     H      0.006120000000     0.461640000000     0.168520000000     0.0328054  
H128     H      0.993200000000     0.494620000000     0.340910000000     0.050105   
H129     H      0.018230000000     0.598020000000     0.203990000000     0.0571887  
H130     H      0.943260000000     0.545950000000     0.384360000000     0.0351446  
H131     H      0.078890000000     0.531850000000     0.339970000000     0.053773   
H132     H      0.966450000000     0.523030000000     0.208740000000     0.0501318  
H133     H      0.086890000000     0.583390000000     0.161700000000     0.0136333  
H134     H      0.037150000000     0.626990000000     0.346810000000     0.0253393  
H135     H      0.135180000000     0.562010000000     0.221820000000     0.0755066  
H136     H      0.135040000000     0.519640000000     0.182370000000     0.0822629  
H137     H      0.254470000000     0.945850000000     0.535340000000     0.0417734  
H138     H      0.161310000000     0.096110000000     0.492620000000     0.0288337  
H139     H      0.304360000000     0.022730000000     0.427530000000     0.0262738  
H140     H      0.258590000000     0.079660000000     0.469350000000     0.0431556  
H141     H      0.202200000000     0.050560000000     0.434260000000     0.0443051  
H142     H      0.190570000000     0.975460000000     0.562920000000     0.0507118  
H143     H      0.337470000000     0.937630000000     0.520960000000     0.035227   
H144     H      0.124840000000     0.081040000000     0.446390000000     0.033674   
H145     H      0.291190000000     0.070840000000     0.519030000000     0.053402   
H146     H      0.156070000000     0.958930000000     0.515490000000     0.0540804  
H147     H      0.339550000000     0.066510000000     0.451030000000     0.0350379  
H148     H      0.287400000000     0.990020000000     0.562200000000     0.0498642  
H149     H      0.161920000000     0.006380000000     0.439610000000     0.0528708  
H150     H      0.109630000000     0.001650000000     0.568460000000     0.0126664  
H151     H      0.303780000000     0.942180000000     0.470180000000     0.0284142  
H152     H      0.167320000000     0.040090000000     0.608650000000     0.0763447  
H153     H      0.129850000000     0.079410000000     0.588880000000     0.0871248  
H154     H      0.707380000000     0.969630000000     0.458130000000     0.0418712  
H155     H      0.798720000000     0.122900000000     0.511510000000     0.0293752  
H156     H      0.648700000000     0.034150000000     0.570260000000     0.0262552  
H157     H      0.691280000000     0.096360000000     0.534940000000     0.0430631  
H158     H      0.754310000000     0.074120000000     0.562050000000     0.0442975  
H159     H      0.763190000000     0.013330000000     0.426010000000     0.0509743  
H160     H      0.625810000000     0.952360000000     0.471400000000     0.0344408  
H161     H      0.834710000000     0.099340000000     0.554490000000     0.0329706  
H162     H      0.660560000000     0.090560000000     0.483520000000     0.0531563  
H163     H      0.798670000000     0.989680000000     0.469770000000     0.05558    
H164     H      0.610490000000     0.076130000000     0.548280000000     0.0351994  
H165     H      0.670430000000     0.012200000000     0.433940000000     0.0491971  
H166     H      0.792180000000     0.028100000000     0.554050000000     0.0529259  
H167     H      0.843180000000     0.039470000000     0.420980000000     0.0136644  
H168     H      0.658520000000     0.957600000000     0.522860000000     0.028443   
H169     H      0.784700000000     0.085340000000     0.391190000000     0.0765196  
H170     H      0.824180000000     0.119940000000     0.415400000000     0.0861794  
H171     H      0.016980000000     0.835530000000     0.439050000000     0.0417967  
H172     H      0.970530000000     0.733240000000     0.588390000000     0.0296934  
H173     H      0.900710000000     0.886010000000     0.501910000000     0.0255626  
H174     H      0.931690000000     0.837290000000     0.560680000000     0.0428217  
H175     H      0.916720000000     0.770850000000     0.537590000000     0.0442234  
H176     H      0.054590000000     0.782500000000     0.481830000000     0.0507718  
H177     H      0.001900000000     0.917730000000     0.428080000000     0.0346672  
H178     H      0.935070000000     0.691510000000     0.561930000000     0.0337492  
H179     H      0.982630000000     0.869240000000     0.563640000000     0.0534447  
H180     H      0.017270000000     0.740960000000     0.457180000000     0.0559474  
H181     H      0.919170000000     0.920190000000     0.548840000000     0.0345908  
H182     H      0.038350000000     0.869450000000     0.485620000000     0.0495312  
H183     H      0.932130000000     0.735250000000     0.491660000000     0.0528225  
H184     H      0.070930000000     0.705150000000     0.509200000000     0.0138875  
H185     H      0.951300000000     0.883380000000     0.429020000000     0.027698   
H186     H      0.088180000000     0.767680000000     0.556240000000     0.07632    
H187     H      0.069340000000     0.724420000000     0.589750000000     0.0858248  
H188     H      0.089980000000     0.334470000000     0.545170000000     0.042118   
H189     H      0.944810000000     0.242650000000     0.486230000000     0.0288662  
H190     H      0.011930000000     0.393760000000     0.441210000000     0.0258729  
H191     H      0.960940000000     0.335760000000     0.471410000000     0.043538   
H192     H      0.997050000000     0.283670000000     0.434350000000     0.0442283  
H193     H      0.060970000000     0.267560000000     0.568280000000     0.0506567  
H194     H      0.091470000000     0.419160000000     0.541930000000     0.0339639  
H195     H      0.964360000000     0.205580000000     0.442120000000     0.0333024  
H196     H      0.962210000000     0.360510000000     0.526360000000     0.0538791  
H197     H      0.078560000000     0.232360000000     0.521800000000     0.0549197  
H198     H      0.964860000000     0.420360000000     0.469050000000     0.0346551  
H199     H      0.042040000000     0.359860000000     0.573780000000     0.0499792  
H200     H      0.039270000000     0.241720000000     0.442770000000     0.0526205  
H201     H      0.029410000000     0.188770000000     0.572100000000     0.0120176  
H202     H      0.091350000000     0.392270000000     0.486910000000     0.029008   
H203     H      0.990110000000     0.249220000000     0.607480000000     0.0763689  
H204     H      0.951350000000     0.212890000000     0.584650000000     0.0875843  
N1       N      0.915290000000     0.524410000000     0.019050000000    -0.18549    
N2       N      0.689130000000     0.481080000000     0.053400000000    -0.174764   
N3       N      0.869240000000     0.506030000000     0.954090000000    -0.195725   
N4       N      0.187280000000     0.500970000000     0.030570000000    -0.185549   
N5       N      0.419440000000     0.460500000000     0.015580000000    -0.174986   
N6       N      0.225540000000     0.479300000000     0.099380000000    -0.195454   
N7       N      0.493500000000     0.837740000000     0.991370000000    -0.185228   
N8       N      0.543580000000     0.609940000000     0.031050000000    -0.174409   
N9       N      0.510620000000     0.796330000000     0.923010000000    -0.19566    
N10      N      0.499830000000     0.111530000000     0.000860000000    -0.185678   
N11      N      0.562290000000     0.336570000000     0.040530000000    -0.174627   
N12      N      0.434990000000     0.160650000000     0.994150000000    -0.195482   
N13      N      0.468370000000     0.977600000000     0.864350000000    -0.185649   
N14      N      0.470850000000     0.007130000000     0.633450000000    -0.174292   
N15      N      0.394870000000     0.958050000000     0.834680000000    -0.19561    
N16      N      0.489890000000     0.005360000000     0.360110000000    -0.184846   
N17      N      0.523120000000     0.966900000000     0.132510000000    -0.17486    
N18      N      0.472940000000     0.068950000000     0.311520000000    -0.195299   
N19      N      0.057370000000     0.505310000000     0.888620000000    -0.18611    
N20      N      0.020800000000     0.543710000000     0.660280000000    -0.1749     
N21      N      0.082190000000     0.438650000000     0.848290000000    -0.195591   
N22      N      0.049540000000     0.520310000000     0.161750000000    -0.186001   
N23      N      0.010560000000     0.574840000000     0.388470000000    -0.175358   
N24      N      0.115550000000     0.536340000000     0.206980000000    -0.19545    
N25      N      0.113680000000     0.044850000000     0.509620000000    -0.185395   
N26      N      0.342720000000     0.000940000000     0.484290000000    -0.174554   
N27      N      0.154800000000     0.055960000000     0.579380000000    -0.195435   
N28      N      0.842760000000     0.071660000000     0.486870000000    -0.185747   
N29      N      0.614210000000     0.012920000000     0.510950000000    -0.17497    
N30      N      0.799080000000     0.095680000000     0.422030000000    -0.195526   
N31      N      0.004380000000     0.694500000000     0.538100000000    -0.185493   
N32      N      0.960510000000     0.923100000000     0.488270000000    -0.17517    
N33      N      0.059790000000     0.748240000000     0.565120000000    -0.195442   
N34      N      0.992650000000     0.194010000000     0.509090000000    -0.185581   
N35      N      0.029250000000     0.424010000000     0.504000000000    -0.17503    
N36      N      0.976620000000     0.236690000000     0.577040000000    -0.195302   
O1       O      0.987410000000     0.123460000000     0.541730000000    -0.401842   
O2       O      0.961880000000     0.988450000000     0.530620000000    -0.399503   
O3       O      0.042440000000     0.043080000000     0.541300000000    -0.399257   
O4       O      0.907220000000     0.068680000000     0.530670000000    -0.398808   
O5       O      0.913220000000     0.063230000000     0.455300000000    -0.403274   
O6       O      0.049790000000     0.058260000000     0.467400000000    -0.40224    
O7       O      0.978980000000     0.991970000000     0.456850000000    -0.399902   
O8       O      0.983610000000     0.129510000000     0.466240000000    -0.400873   
O9       O      0.051270000000     0.569250000000     0.454730000000    -0.400077   
O10      O      0.055840000000     0.557490000000     0.592090000000    -0.40076    
O11      O      0.060320000000     0.494060000000     0.517840000000    -0.400136   
O12      O      0.047480000000     0.630580000000     0.528760000000    -0.405186   
O13      O      0.972600000000     0.622980000000     0.536110000000    -0.39829    
O14      O      0.985060000000     0.487280000000     0.513240000000    -0.399997   
O15      O      0.981470000000     0.543640000000     0.593100000000    -0.400694   
O16      O      0.975770000000     0.564610000000     0.457210000000    -0.40205    
O17      O      0.479900000000     0.969740000000     0.565770000000    -0.400572   
O18      O      0.481000000000     0.968660000000     0.428210000000    -0.401393   
O19      O      0.549110000000     0.972400000000     0.497750000000    -0.398965   
O20      O      0.411440000000     0.966270000000     0.496310000000    -0.398347   
O21      O      0.409250000000     0.041250000000     0.485400000000    -0.399649   
O22      O      0.544690000000     0.047430000000     0.507890000000    -0.39954    
O23      O      0.488150000000     0.044110000000     0.428050000000    -0.397997   
O24      O      0.466250000000     0.044290000000     0.564870000000    -0.396424   
O25      O      0.547090000000     0.974890000000     0.058560000000    -0.396951   
O26      O      0.519120000000     0.973050000000     0.923160000000    -0.401252   
O27      O      0.534190000000     0.042730000000     0.989310000000    -0.40273    
O28      O      0.532250000000     0.905240000000     0.989900000000    -0.402577   
O29      O      0.457530000000     0.906210000000     0.001860000000    -0.399259   
O30      O      0.461980000000     0.044120000000     0.011850000000    -0.399865   
O31      O      0.445550000000     0.981080000000     0.938890000000    -0.401374   
O32      O      0.473100000000     0.968760000000     0.073320000000    -0.401294   
O33      O      0.042320000000     0.479570000000     0.095760000000    -0.401894   
O34      O      0.051620000000     0.471310000000     0.958470000000    -0.403035   
O35      O      0.116030000000     0.469500000000     0.032940000000    -0.402051   
O36      O      0.979680000000     0.481310000000     0.021280000000    -0.40439    
O37      O      0.986090000000     0.556820000000     0.024210000000    -0.398265   
O38      O      0.123310000000     0.544230000000     0.022350000000    -0.402012   
O39      O      0.055490000000     0.546980000000     0.954430000000    -0.401472   
O40      O      0.056570000000     0.553950000000     0.091920000000    -0.403152   
O41      O      0.555160000000     0.405720000000     0.075780000000    -0.399788   
O42      O      0.540200000000     0.542570000000     0.070090000000    -0.399917   
O43      O      0.480820000000     0.465370000000     0.063200000000    -0.398589   
O44      O      0.616590000000     0.482800000000     0.082250000000    -0.395525   
O45      O      0.627110000000     0.474010000000     0.007640000000    -0.403639   
O46      O      0.491510000000     0.470230000000     0.988280000000    -0.401489   
O47      O      0.557580000000     0.541410000000     0.996330000000    -0.399407   
O48      O      0.562300000000     0.403450000000     0.000320000000    -0.3996     


