data_structure

_audit_creation_method RASPA-1.0
_audit_creation_date 2023-5-25
_audit_author_name 'Poobodin Mano'

_cell_length_a    29.4822
_cell_length_b    29.4667
_cell_length_c    29.3812
_cell_angle_alpha 89.9998
_cell_angle_beta  89.9998
_cell_angle_gamma 89.9998
_cell_volume      25524.7

_symmetry_cell_setting          triclinic
_symmetry_space_group_name_Hall 'P 1'
_symmetry_space_group_name_H-M  'P 1'
_symmetry_Int_Tables_number     1

_symmetry_equiv_pos_as_xyz 'x,y,z'

loop_
_atom_site_label
_atom_site_type_symbol
_atom_site_fract_x
_atom_site_fract_y
_atom_site_fract_z
_atom_site_charge
C1       C      0.112660000000     0.972800000000     0.557800000000     0.417867   
C2       C      0.934320000000     0.999560000000     0.549090000000     0.402262   
C3       C      0.036890000000     0.075650000000     0.546980000000     0.401112   
C4       C      0.008740000000     0.897590000000     0.559460000000     0.404798   
C5       C      0.018600000000     0.492870000000     0.409980000000     0.407553   
C6       C      0.010150000000     0.483530000000     0.590590000000     0.416682   
C7       C      0.010370000000     0.397950000000     0.494760000000     0.420738   
C8       C      0.018860000000     0.577950000000     0.506270000000     0.417205   
C9       C      0.525310000000     0.010870000000     0.609020000000     0.418912   
C10      C      0.523270000000     0.041420000000     0.430700000000     0.405412   
C11      C      0.613300000000     0.033520000000     0.519100000000     0.419947   
C12      C      0.433330000000     0.019400000000     0.519770000000     0.401705   
C13      C      0.485140000000     0.005190000000     0.113160000000     0.423834   
C14      C      0.487400000000     0.011870000000     0.932420000000     0.401293   
C15      C      0.478620000000     0.097850000000     0.026860000000     0.417834   
C16      C      0.494310000000     0.918390000000     0.019560000000     0.422243   
C17      C      0.997050000000     0.549870000000     0.088910000000     0.419684   
C18      C      0.029050000000     0.545350000000     0.910840000000     0.404533   
C19      C      0.101500000000     0.545260000000     0.015260000000     0.416807   
C20      C      0.923960000000     0.550540000000     0.983560000000     0.42156    
C21      C      0.518500000000     0.414710000000     0.978420000000     0.402533   
C22      C      0.497180000000     0.593740000000     0.977170000000     0.401582   
C23      C      0.418910000000     0.493590000000     0.974120000000     0.401555   
C24      C      0.597930000000     0.514070000000     0.981980000000     0.400569   
C25      C      0.673060000000     0.494700000000     0.950270000000     0.0104608  
C26      C      0.851490000000     0.592680000000     0.986480000000     0.0363415  
C27      C      0.855980000000     0.516370000000     0.947810000000     0.343339   
C28      C      0.807560000000     0.578860000000     0.010760000000    -0.12503    
C29      C      0.713190000000     0.524560000000     0.936780000000    -0.0960919  
C30      C      0.811100000000     0.502230000000     0.969790000000    -0.197055   
C31      C      0.736750000000     0.543460000000     0.978520000000     0.00790131 
C32      C      0.782770000000     0.543160000000     0.983210000000     0.0761745  
C33      C      0.666320000000     0.536730000000     0.025010000000     0.0103356  
C34      C      0.705790000000     0.567960000000     0.011520000000    -0.0968276  
C35      C      0.348040000000     0.463870000000     0.008250000000     0.0118726  
C36      C      0.176920000000     0.580930000000     0.005800000000     0.0333082  
C37      C      0.169550000000     0.505500000000     0.045060000000     0.342554   
C38      C      0.212740000000     0.561820000000     0.973110000000    -0.121178   
C39      C      0.310810000000     0.494160000000     0.027770000000    -0.095629   
C40      C      0.206290000000     0.485270000000     0.014430000000    -0.195155   
C41      C      0.282540000000     0.515450000000     0.990090000000     0.00690541 
C42      C      0.237010000000     0.521960000000     0.995000000000     0.0731475  
C43      C      0.346060000000     0.505870000000     0.934020000000     0.0105397  
C44      C      0.309290000000     0.538080000000     0.952110000000    -0.0961543  
C45      C      0.461630000000     0.661680000000     0.011360000000     0.0118475  
C46      C      0.540520000000     0.850800000000     0.001210000000     0.0334473  
C47      C      0.464070000000     0.842530000000     0.039330000000     0.342844   
C48      C      0.529210000000     0.811980000000     0.968300000000    -0.122328   
C49      C      0.484370000000     0.704720000000     0.029050000000    -0.0976001  
C50      C      0.452560000000     0.802980000000     0.007770000000    -0.195604   
C51      C      0.500560000000     0.734290000000     0.990010000000     0.0101829  
C52      C      0.495300000000     0.780230000000     0.990320000000     0.0732647  
C53      C      0.505300000000     0.667510000000     0.937830000000     0.0112356  
C54      C      0.529620000000     0.710300000000     0.954890000000    -0.0979812  
C55      C      0.542970000000     0.344630000000     0.017960000000     0.012016   
C56      C      0.436830000000     0.168430000000     0.008660000000     0.0340641  
C57      C      0.508510000000     0.170900000000     0.055340000000     0.343993   
C58      C      0.454970000000     0.205950000000     0.977140000000    -0.12187    
C59      C      0.509010000000     0.310390000000     0.036690000000    -0.0965508  
C60      C      0.527910000000     0.207910000000     0.024790000000    -0.19723    
C61      C      0.491230000000     0.280460000000     0.998600000000     0.00852642 
C62      C      0.490070000000     0.234400000000     0.001970000000     0.0751258  
C63      C      0.506660000000     0.340490000000     0.940620000000     0.0098755  
C64      C      0.471860000000     0.305630000000     0.957930000000    -0.0967913  
C65      C      0.522980000000     0.040980000000     0.862020000000     0.0118249  
C66      C      0.513820000000     0.959170000000     0.674420000000     0.0337904  
C67      C      0.548910000000     0.036650000000     0.685410000000     0.342841   
C68      C      0.483140000000     0.966480000000     0.716120000000    -0.122126   
C69      C      0.543930000000     0.013030000000     0.823800000000    -0.0977593  
C70      C      0.519040000000     0.044820000000     0.726960000000    -0.196514   
C71      C      0.506960000000     0.993080000000     0.794120000000     0.00961403 
C72      C      0.504920000000     0.000190000000     0.748380000000     0.0737023  
C73      C      0.451730000000     0.993420000000     0.858330000000     0.00995816 
C74      C      0.472080000000     0.964970000000     0.819420000000    -0.0976703  
C75      C      0.553490000000     0.019370000000     0.355760000000     0.0143159  
C76      C      0.445330000000     0.021150000000     0.185830000000     0.0355733  
C77      C      0.524540000000     0.988410000000     0.185580000000     0.345645   
C78      C      0.459970000000     0.058010000000     0.220060000000    -0.124646   
C79      C      0.524250000000     0.999720000000     0.318040000000    -0.0995069  
C80      C      0.540120000000     0.025330000000     0.218360000000    -0.198905   
C81      C      0.499950000000     0.037700000000     0.293230000000     0.0155101  
C82      C      0.500460000000     0.041180000000     0.247030000000     0.0767725  
C83      C      0.501740000000     0.086990000000     0.363060000000     0.0110305  
C84      C      0.472450000000     0.069470000000     0.323210000000    -0.0991546  
C85      C      0.064400000000     0.506650000000     0.844990000000     0.0134136  
C86      C      0.968700000000     0.502050000000     0.661460000000     0.0330406  
C87      C      0.043660000000     0.461250000000     0.664840000000     0.341946   
C88      C      0.984990000000     0.537120000000     0.696430000000    -0.121237   
C89      C      0.038860000000     0.486310000000     0.804660000000    -0.0974536  
C90      C      0.060580000000     0.494400000000     0.701140000000    -0.194465   
C91      C      0.022240000000     0.523060000000     0.772390000000     0.0104834  
C92      C      0.021300000000     0.516310000000     0.726470000000     0.0721383  
C93      C      0.024560000000     0.581260000000     0.834770000000     0.0137177  
C94      C      0.997110000000     0.562240000000     0.794650000000    -0.0994497  
C95      C      0.984130000000     0.474840000000     0.335390000000     0.012254   
C96      C      0.006600000000     0.588120000000     0.163400000000     0.0359675  
C97      C      0.962560000000     0.515130000000     0.157460000000     0.344549   
C98      C      0.034620000000     0.569050000000     0.203190000000    -0.124558   
C99      C      0.968140000000     0.508870000000     0.299760000000    -0.0970662  
C100     C      0.989210000000     0.495030000000     0.197210000000    -0.197708   
C101     C      0.008250000000     0.528210000000     0.273880000000     0.0117759  
C102     C      0.008250000000     0.532130000000     0.227630000000     0.0779121  
C103     C      0.060280000000     0.513450000000     0.339650000000     0.0126996  
C104     C      0.045420000000     0.548200000000     0.303470000000    -0.0992634  
C105     C      0.363760000000     0.979480000000     0.494430000000     0.0103964  
C106     C      0.184670000000     0.979610000000     0.600650000000     0.0339443  
C107     C      0.183530000000     0.942590000000     0.523620000000     0.342488   
C108     C      0.224110000000     0.010420000000     0.586480000000    -0.121616   
C109     C      0.327600000000     0.957300000000     0.524290000000    -0.0953371  
C110     C      0.224030000000     0.971250000000     0.508330000000    -0.1956     
C111     C      0.297530000000     0.992880000000     0.546380000000     0.00645062 
C112     C      0.251500000000     0.988470000000     0.548640000000     0.0734376  
C113     C      0.358470000000     0.051490000000     0.540290000000     0.00998129 
C114     C      0.322850000000     0.029960000000     0.571670000000    -0.0960206  
C115     C      0.862860000000     0.023310000000     0.586130000000     0.0103827  
C116     C      0.686740000000     0.004910000000     0.490810000000     0.0363587  
C117     C      0.682300000000     0.078130000000     0.535560000000     0.345634   
C118     C      0.729480000000     0.991290000000     0.516690000000    -0.123401   
C119     C      0.827450000000     0.058250000000     0.570410000000    -0.0969824  
C120     C      0.724470000000     0.064600000000     0.563090000000    -0.200966   
C121     C      0.799500000000     0.037760000000     0.532410000000     0.0120225  
C122     C      0.753710000000     0.032660000000     0.535390000000     0.078534   
C123     C      0.862410000000     0.986990000000     0.507940000000     0.0107069  
C124     C      0.826870000000     0.021120000000     0.492190000000    -0.0963941  
C125     C      0.972190000000     0.829590000000     0.526920000000     0.014104   
C126     C      0.059750000000     0.646490000000     0.532850000000     0.0321781  
C127     C      0.985500000000     0.653470000000     0.490340000000     0.342342   
C128     C      0.043160000000     0.680470000000     0.568980000000    -0.120994   
C129     C      0.996500000000     0.787210000000     0.510010000000    -0.098924   
C130     C      0.968470000000     0.687380000000     0.525710000000    -0.19505    
C131     C      0.011360000000     0.757720000000     0.549670000000     0.014197   
C132     C      0.008000000000     0.711610000000     0.548020000000     0.0715185  
C133     C      0.012700000000     0.825150000000     0.602150000000     0.0131604  
C134     C      0.037860000000     0.782000000000     0.586750000000    -0.10023    
C135     C      0.066350000000     0.142380000000     0.504710000000     0.0110478  
C136     C      0.968400000000     0.326530000000     0.508360000000     0.0361197  
C137     C      0.043630000000     0.325540000000     0.467820000000     0.343263   
C138     C      0.983620000000     0.287850000000     0.539790000000    -0.124075   
C139     C      0.038650000000     0.181810000000     0.485280000000    -0.095697   
C140     C      0.059360000000     0.285360000000     0.496800000000    -0.196373   
C141     C      0.021690000000     0.213270000000     0.522620000000     0.00687702 
C142     C      0.019590000000     0.259140000000     0.516610000000     0.0760442  
C143     C      0.028870000000     0.152070000000     0.580960000000     0.0109471  
C144     C      0.998430000000     0.189920000000     0.562260000000    -0.0966057  
Cu1      Cu     0.024980000000     0.982970000000     0.511500000000     0.851109   
Cu2      Cu     0.022010000000     0.989960000000     0.595160000000     0.846661   
Cu3      Cu     0.056180000000     0.485930000000     0.502110000000     0.847236   
Cu4      Cu     0.972960000000     0.490030000000     0.498460000000     0.855648   
Cu5      Cu     0.526580000000     0.985160000000     0.512410000000     0.852728   
Cu6      Cu     0.520160000000     0.067360000000     0.527260000000     0.85543    
Cu7      Cu     0.527810000000     0.011730000000     0.023490000000     0.858079   
Cu8      Cu     0.444720000000     0.004620000000     0.022100000000     0.847674   
Cu9      Cu     0.011350000000     0.506050000000     0.000600000000     0.85076    
Cu10     Cu     0.014040000000     0.589420000000     0.998970000000     0.850832   
Cu11     Cu     0.506530000000     0.504300000000     0.019720000000     0.848203   
Cu12     Cu     0.510150000000     0.504210000000     0.936110000000     0.84226    
F1       F      0.847270000000     0.532680000000     0.904470000000    -0.447351   
F2       F      0.189500000000     0.520630000000     0.084960000000    -0.446043   
F3       F      0.480830000000     0.825410000000     0.079880000000    -0.436099   
F4       F      0.487630000000     0.190990000000     0.092460000000    -0.448356   
F5       F      0.590590000000     0.020310000000     0.699730000000    -0.448356   
F6       F      0.512570000000     0.950130000000     0.210170000000    -0.43885    
F7       F      0.026160000000     0.423180000000     0.686210000000    -0.446868   
F8       F      0.922720000000     0.533850000000     0.173950000000    -0.445569   
F9       F      0.199320000000     0.901290000000     0.539640000000    -0.445681   
F10      F      0.695170000000     0.105980000000     0.499820000000    -0.44069    
F11      F      0.003630000000     0.677090000000     0.453860000000    -0.445906   
F12      F      0.026170000000     0.309140000000     0.427260000000    -0.444423   
H1       H      0.735780000000     0.505580000000     0.913460000000     0.0627141  
H2       H      0.842610000000     0.611250000000     0.954740000000     0.0539317  
H3       H      0.679780000000     0.508500000000     0.046210000000     0.0367303  
H4       H      0.723460000000     0.577700000000     0.043440000000     0.0492077  
H5       H      0.786970000000     0.610180000000     0.014860000000     0.0567697  
H6       H      0.793470000000     0.478000000000     0.947100000000     0.093341   
H7       H      0.653990000000     0.485120000000     0.919080000000     0.0418217  
H8       H      0.870390000000     0.616430000000     0.008950000000     0.0403064  
H9       H      0.692430000000     0.599250000000     0.995190000000     0.0552824  
H10      H      0.818890000000     0.483000000000     0.001390000000     0.0778076  
H11      H      0.642190000000     0.556540000000     0.046270000000     0.0418971  
H12      H      0.700090000000     0.553700000000     0.916660000000     0.0621449  
H13      H      0.815520000000     0.565090000000     0.045070000000     0.0673496  
H14      H      0.877630000000     0.485690000000     0.944160000000    -0.00525211 
H15      H      0.686580000000     0.462840000000     0.965390000000     0.0329017  
H16      H      0.291070000000     0.474430000000     0.052920000000     0.0623465  
H17      H      0.194540000000     0.596590000000     0.035370000000     0.0570445  
H18      H      0.329270000000     0.477120000000     0.916150000000     0.0315581  
H19      H      0.287180000000     0.547080000000     0.922830000000     0.0440182  
H20      H      0.236450000000     0.589990000000     0.964970000000     0.0524394  
H21      H      0.224250000000     0.458150000000     0.033190000000     0.0916588  
H22      H      0.370550000000     0.452110000000     0.036230000000     0.0415691  
H23      H      0.157810000000     0.608150000000     0.987950000000     0.0365244  
H24      H      0.325280000000     0.569610000000     0.965300000000     0.0539778  
H25      H      0.189380000000     0.468110000000     0.985310000000     0.07263    
H26      H      0.367180000000     0.524470000000     0.908820000000     0.038711   
H27      H      0.327130000000     0.522120000000     0.047180000000     0.0660961  
H28      H      0.196230000000     0.550450000000     0.941060000000     0.0551039  
H29      H      0.145090000000     0.478310000000     0.054280000000    -0.00642726 
H30      H      0.331690000000     0.433300000000     0.993270000000     0.030739   
H31      H      0.461270000000     0.722010000000     0.053150000000     0.0685977  
H32      H      0.560000000000     0.836770000000     0.030430000000     0.0582572  
H33      H      0.475230000000     0.677920000000     0.917460000000     0.0318343  
H34      H      0.536130000000     0.731940000000     0.924630000000     0.0451056  
H35      H      0.561680000000     0.794770000000     0.959960000000     0.0533781  
H36      H      0.428470000000     0.779740000000     0.024880000000     0.0917792  
H37      H      0.453990000000     0.638930000000     0.040550000000     0.0431295  
H38      H      0.562780000000     0.875390000000     0.983180000000     0.0368028  
H39      H      0.562710000000     0.700940000000     0.970410000000     0.0556219  
H40      H      0.433950000000     0.816670000000     0.977850000000     0.0716146  
H41      H      0.528750000000     0.648710000000     0.914940000000     0.0392935  
H42      H      0.514590000000     0.694730000000     0.049340000000     0.0678876  
H43      H      0.514580000000     0.825940000000     0.936370000000     0.0550761  
H44      H      0.432240000000     0.861140000000     0.047240000000    -0.00230377 
H45      H      0.428680000000     0.671340000000     0.995670000000     0.0309786  
H46      H      0.524150000000     0.291710000000     0.065620000000     0.0655937  
H47      H      0.415840000000     0.184410000000     0.035740000000     0.0557681  
H48      H      0.535870000000     0.321880000000     0.925570000000     0.0326244  
H49      H      0.463930000000     0.282560000000     0.929110000000     0.0444663  
H50      H      0.425390000000     0.226610000000     0.966170000000     0.0527475  
H51      H      0.552140000000     0.228870000000     0.044430000000     0.0908455  
H52      H      0.553690000000     0.368060000000     0.045600000000     0.04197    
H53      H      0.414540000000     0.145560000000     0.988510000000     0.0347751  
H54      H      0.440150000000     0.323270000000     0.968210000000     0.0544353  
H55      H      0.548330000000     0.191470000000     0.997580000000     0.0738263  
H56      H      0.490710000000     0.361020000000     0.913210000000     0.0396897  
H57      H      0.479790000000     0.329350000000     0.051190000000     0.0650894  
H58      H      0.470760000000     0.190470000000     0.946500000000     0.0551057  
H59      H      0.536920000000     0.149800000000     0.068460000000    -0.00776096 
H60      H      0.573620000000     0.325820000000     0.006470000000     0.0316409  
H61      H      0.569360000000     0.033380000000     0.804990000000     0.0665085  
H62      H      0.544610000000     0.940240000000     0.685320000000     0.054212   
H63      H      0.430500000000     0.020810000000     0.843300000000     0.0316878  
H64      H      0.443610000000     0.953920000000     0.797300000000     0.0441277  
H65      H      0.478110000000     0.932800000000     0.732340000000     0.0525244  
H66      H      0.536220000000     0.068550000000     0.750560000000     0.0897365  
H67      H      0.550320000000     0.053060000000     0.885080000000     0.0402098  
H68      H      0.495310000000     0.937790000000     0.649350000000     0.0347083  
H69      H      0.488690000000     0.934210000000     0.833610000000     0.0531711  
H70      H      0.487740000000     0.062600000000     0.715670000000     0.0719888  
H71      H      0.429210000000     0.971240000000     0.878980000000     0.0382473  
H72      H      0.563170000000     0.984470000000     0.839260000000     0.0628869  
H73      H      0.449580000000     0.979650000000     0.705050000000     0.0547659  
H74      H      0.554960000000     0.069740000000     0.668270000000    -0.00662028 
H75      H      0.506780000000     0.071500000000     0.846770000000     0.0293273  
H76      H      0.545040000000     0.977430000000     0.296030000000     0.0776141  
H77      H      0.430370000000     0.992300000000     0.205090000000     0.0590979  
H78      H      0.527160000000     0.111310000000     0.349360000000     0.0394844  
H79      H      0.460180000000     0.099600000000     0.304090000000     0.049897   
H80      H      0.430300000000     0.065900000000     0.241940000000     0.0575177  
H81      H      0.569940000000     0.013940000000     0.238280000000     0.0912372  
H82      H      0.569950000000     0.991300000000     0.374930000000     0.0434263  
H83      H      0.418400000000     0.035380000000     0.163510000000     0.0417861  
H84      H      0.442550000000     0.050900000000     0.336770000000     0.0567621  
H85      H      0.552300000000     0.054720000000     0.198020000000     0.080532   
H86      H      0.479640000000     0.105540000000     0.387460000000     0.0410771  
H87      H      0.498180000000     0.977310000000     0.333610000000     0.0722225  
H88      H      0.469580000000     0.089380000000     0.201400000000     0.0700733  
H89      H      0.553460000000     0.979010000000     0.163220000000    -0.000309644
H90      H      0.580980000000     0.039870000000     0.339930000000     0.0362049  
H91      H      0.060500000000     0.460230000000     0.788510000000     0.0625679  
H92      H      0.950430000000     0.474490000000     0.679720000000     0.0581493  
H93      H      0.055470000000     0.598180000000     0.821190000000     0.0308114  
H94      H      0.991650000000     0.590670000000     0.770410000000     0.0472983  
H95      H      0.954780000000     0.547920000000     0.716250000000     0.0559497  
H96      H      0.085510000000     0.477070000000     0.723260000000     0.0898142  
H97      H      0.072320000000     0.479400000000     0.869930000000     0.0397777  
H98      H      0.944110000000     0.518820000000     0.638220000000     0.0372782  
H99      H      0.963520000000     0.550180000000     0.806890000000     0.0674781  
H100     H      0.079740000000     0.521930000000     0.683800000000     0.0712027  
H101     H      0.003750000000     0.607320000000     0.852470000000     0.0432919  
H102     H      0.008630000000     0.468000000000     0.817860000000     0.0705494  
H103     H      0.999100000000     0.567260000000     0.678620000000     0.0543012  
H104     H      0.073040000000     0.450090000000     0.643940000000    -0.00730378 
H105     H      0.097260000000     0.520220000000     0.832300000000     0.0284799  
H106     H      0.941830000000     0.493100000000     0.278050000000     0.0666722  
H107     H      0.977380000000     0.607420000000     0.177520000000     0.0581744  
H108     H      0.078600000000     0.485300000000     0.322360000000     0.0397281  
H109     H      0.076020000000     0.557300000000     0.283410000000     0.0529163  
H110     H      0.042580000000     0.597940000000     0.226140000000     0.0601867  
H111     H      0.967870000000     0.469780000000     0.215040000000     0.0944937  
H112     H      0.954580000000     0.463400000000     0.355890000000     0.0486987  
H113     H      0.028120000000     0.612250000000     0.143910000000     0.0409798  
H114     H      0.032510000000     0.579370000000     0.320400000000     0.0666683  
H115     H      0.018360000000     0.475610000000     0.183170000000     0.0797785  
H116     H      0.084390000000     0.530240000000     0.363400000000     0.0467069  
H117     H      0.950970000000     0.537400000000     0.317560000000     0.0699328  
H118     H      0.067000000000     0.554720000000     0.190160000000     0.0683493  
H119     H      0.953110000000     0.487240000000     0.133810000000    -0.0055359  
H120     H      0.997750000000     0.444560000000     0.317380000000     0.0410503  
H121     H      0.309140000000     0.931470000000     0.504230000000     0.0612577  
H122     H      0.198750000000     0.948850000000     0.617460000000     0.0550346  
H123     H      0.340660000000     0.070540000000     0.512900000000     0.0330005  
H124     H      0.300070000000     0.057750000000     0.583040000000     0.0439894  
H125     H      0.245030000000     0.016170000000     0.617410000000     0.0519789  
H126     H      0.243840000000     0.951690000000     0.483110000000     0.0933186  
H127     H      0.387520000000     0.952950000000     0.482000000000     0.0429989  
H128     H      0.163700000000     0.997970000000     0.626130000000     0.0355729  
H129     H      0.339690000000     0.015200000000     0.602110000000     0.0525514  
H130     H      0.210880000000     0.001380000000     0.489780000000     0.0733744  
H131     H      0.378570000000     0.076260000000     0.560490000000     0.0393087  
H132     H      0.344980000000     0.938290000000     0.551930000000     0.0620748  
H133     H      0.210780000000     0.043630000000     0.574520000000     0.0557627  
H134     H      0.161810000000     0.935570000000     0.493520000000    -0.00492537 
H135     H      0.346680000000     0.994280000000     0.464110000000     0.0326985  
H136     H      0.806870000000     0.067780000000     0.600560000000     0.0496553  
H137     H      0.697220000000     0.021300000000     0.458360000000     0.051649   
H138     H      0.844660000000     0.955500000000     0.518840000000     0.0307832  
H139     H      0.806030000000     0.006670000000     0.464340000000     0.0523403  
H140     H      0.750850000000     0.969510000000     0.494680000000     0.0541098  
H141     H      0.742670000000     0.096400000000     0.571980000000     0.0983953  
H142     H      0.885580000000     0.039850000000     0.611410000000     0.0398184  
H143     H      0.667400000000     0.973810000000     0.481750000000     0.0366257  
H144     H      0.844710000000     0.050760000000     0.477110000000     0.0636919  
H145     H      0.714030000000     0.047470000000     0.595130000000     0.0824155  
H146     H      0.884460000000     0.977890000000     0.478640000000     0.0412371  
H147     H      0.844860000000     0.089240000000     0.557730000000     0.0591997  
H148     H      0.719360000000     0.969710000000     0.546020000000     0.0629866  
H149     H      0.659540000000     0.097950000000     0.558310000000    -0.00294435 
H150     H      0.845070000000     0.994900000000     0.603540000000     0.0350401  
H151     H      0.974730000000     0.769760000000     0.484820000000     0.0712289  
H152     H      0.079810000000     0.665240000000     0.506880000000     0.0571849  
H153     H      0.981710000000     0.814930000000     0.621160000000     0.0325724  
H154     H      0.042210000000     0.760210000000     0.617310000000     0.0469816  
H155     H      0.073310000000     0.699100000000     0.581750000000     0.0542573  
H156     H      0.942800000000     0.710270000000     0.510530000000     0.08936    
H157     H      0.964610000000     0.852140000000     0.497550000000     0.0415764  
H158     H      0.082790000000     0.621730000000     0.549610000000     0.035994   
H159     H      0.071970000000     0.791180000000     0.573530000000     0.0648223  
H160     H      0.950150000000     0.668220000000     0.552650000000     0.0722682  
H161     H      0.034960000000     0.844540000000     0.625730000000     0.0417505  
H162     H      0.027430000000     0.797860000000     0.491190000000     0.0742189  
H163     H      0.027720000000     0.661820000000     0.597990000000     0.0537062  
H164     H      0.956080000000     0.633700000000     0.477460000000    -0.00525551 
H165     H      0.939160000000     0.819050000000     0.541860000000     0.0306946  
H166     H      0.058850000000     0.198980000000     0.458620000000     0.0610731  
H167     H      0.949800000000     0.311770000000     0.478920000000     0.0576988  
H168     H      0.059560000000     0.167710000000     0.596460000000     0.033705   
H169     H      0.991720000000     0.213740000000     0.590790000000     0.0485621  
H170     H      0.952940000000     0.267560000000     0.548090000000     0.057569   
H171     H      0.083020000000     0.264410000000     0.476470000000     0.0933552  
H172     H      0.073540000000     0.117520000000     0.477190000000     0.0409619  
H173     H      0.944460000000     0.348640000000     0.527430000000     0.041058   
H174     H      0.965580000000     0.175430000000     0.550680000000     0.0561936  
H175     H      0.079590000000     0.298800000000     0.525760000000     0.076552   
H176     H      0.010100000000     0.133990000000     0.608320000000     0.0405136  
H177     H      0.008480000000     0.167540000000     0.467670000000     0.0647177  
H178     H      0.997610000000     0.302110000000     0.571890000000     0.0664594  
H179     H      0.073640000000     0.346760000000     0.459360000000    -0.00521106 
H180     H      0.099480000000     0.156080000000     0.516500000000     0.0308347  
N1       N      0.878470000000     0.552250000000     0.974610000000    -0.200139   
N2       N      0.644120000000     0.517430000000     0.984370000000    -0.172372   
N3       N      0.147340000000     0.544030000000     0.022080000000    -0.200718   
N4       N      0.372980000000     0.488010000000     0.972200000000    -0.173542   
N5       N      0.498670000000     0.872230000000     0.018500000000    -0.199716   
N6       N      0.489990000000     0.639530000000     0.976470000000    -0.173359   
N7       N      0.474840000000     0.143890000000     0.029980000000    -0.201852   
N8       N      0.523050000000     0.368610000000     0.978760000000    -0.173425   
N9       N      0.527760000000     0.003060000000     0.654770000000    -0.201563   
N10      N      0.487970000000     0.014310000000     0.885990000000    -0.173739   
N11      N      0.484820000000     0.004580000000     0.159660000000    -0.197935   
N12      N      0.525770000000     0.049020000000     0.385000000000    -0.172145   
N13      N      0.007800000000     0.482490000000     0.637050000000    -0.200688   
N14      N      0.038270000000     0.544140000000     0.865300000000    -0.172847   
N15      N      0.989350000000     0.550830000000     0.134780000000    -0.199962   
N16      N      0.020500000000     0.494690000000     0.363540000000    -0.169841   
N17      N      0.158460000000     0.965800000000     0.560280000000    -0.200982   
N18      N      0.387070000000     0.016140000000     0.519350000000    -0.173019   
N19      N      0.659400000000     0.037540000000     0.517240000000    -0.200099   
N20      N      0.888380000000     0.005000000000     0.546960000000    -0.173069   
N21      N      0.020940000000     0.624140000000     0.510240000000    -0.200302   
N22      N      0.999260000000     0.852350000000     0.562360000000    -0.172599   
N23      N      0.008140000000     0.351720000000     0.491540000000    -0.199747   
N24      N      0.042960000000     0.121550000000     0.543830000000    -0.173033   
O1       O      0.092340000000     0.970110000000     0.519250000000    -0.397303   
O2       O      0.957210000000     0.994980000000     0.512210000000    -0.397048   
O3       O      0.038160000000     0.050960000000     0.510960000000    -0.395886   
O4       O      0.010970000000     0.916360000000     0.520180000000    -0.395269   
O5       O      0.014360000000     0.921070000000     0.595880000000    -0.393507   
O6       O      0.029650000000     0.057650000000     0.586050000000    -0.398592   
O7       O      0.954070000000     0.998360000000     0.587990000000    -0.398021   
O8       O      0.090350000000     0.982060000000     0.594120000000    -0.399029   
O9       O      0.055300000000     0.495170000000     0.433410000000    -0.389587   
O10      O      0.048350000000     0.477400000000     0.570480000000    -0.397825   
O11      O      0.048980000000     0.417940000000     0.492570000000    -0.395303   
O12      O      0.055000000000     0.554220000000     0.511320000000    -0.397484   
O13      O      0.980750000000     0.558610000000     0.497820000000    -0.39768    
O14      O      0.973780000000     0.421040000000     0.499770000000    -0.39307    
O15      O      0.974100000000     0.491200000000     0.567400000000    -0.399497   
O16      O      0.980080000000     0.488470000000     0.429790000000    -0.391968   
O17      O      0.524220000000     0.977260000000     0.581230000000    -0.397208   
O18      O      0.528970000000     0.001010000000     0.445700000000    -0.399091   
O19      O      0.594820000000     0.994330000000     0.514490000000    -0.397667   
O20      O      0.457620000000     0.984530000000     0.510140000000    -0.396863   
O21      O      0.452110000000     0.057440000000     0.529570000000    -0.399805   
O22      O      0.588870000000     0.069130000000     0.524650000000    -0.385068   
O23      O      0.516520000000     0.074660000000     0.458180000000    -0.39105    
O24      O      0.524870000000     0.051820000000     0.594240000000    -0.400161   
O25      O      0.523090000000     0.003680000000     0.091850000000    -0.395414   
O26      O      0.523950000000     0.019330000000     0.954930000000    -0.39975    
O27      O      0.517640000000     0.079220000000     0.031590000000    -0.403485   
O28      O      0.529700000000     0.943410000000     0.015650000000    -0.396695   
O29      O      0.454990000000     0.936400000000     0.024830000000    -0.394185   
O30      O      0.443180000000     0.073600000000     0.019620000000    -0.396641   
O31      O      0.450270000000     0.002480000000     0.953180000000    -0.398662   
O32      O      0.447610000000     0.007670000000     0.091170000000    -0.39086    
O33      O      0.994320000000     0.512130000000     0.067310000000    -0.397318   
O34      O      0.028920000000     0.508350000000     0.933840000000    -0.39577    
O35      O      0.078200000000     0.508520000000     0.017630000000    -0.398928   
O36      O      0.944810000000     0.512280000000     0.983090000000    -0.393848   
O37      O      0.945590000000     0.587380000000     0.992010000000    -0.395049   
O38      O      0.082180000000     0.583130000000     0.005930000000    -0.398885   
O39      O      0.020920000000     0.583500000000     0.930320000000    -0.39448    
O40      O      0.007090000000     0.586680000000     0.067810000000    -0.393516   
O41      O      0.519780000000     0.436790000000     0.016050000000    -0.396532   
O42      O      0.493310000000     0.571790000000     0.014690000000    -0.395593   
O43      O      0.439340000000     0.490970000000     0.012580000000    -0.396212   
O44      O      0.574190000000     0.517330000000     0.018460000000    -0.395425   
O45      O      0.578690000000     0.506720000000     0.943480000000    -0.395501   
O46      O      0.441260000000     0.501460000000     0.937460000000    -0.396938   
O47      O      0.507030000000     0.572910000000     0.940100000000    -0.397485   
O48      O      0.512600000000     0.435530000000     0.940540000000    -0.397661   


