data_structure

_audit_creation_method RASPA-1.0
_audit_creation_date 2023-5-25
_audit_author_name 'Poobodin Mano'

_cell_length_a    29.5457
_cell_length_b    28.5684
_cell_length_c    29.0533
_cell_angle_alpha 89.9998
_cell_angle_beta  89.9998
_cell_angle_gamma 89.9998
_cell_volume      24523.1

_symmetry_cell_setting          triclinic
_symmetry_space_group_name_Hall 'P 1'
_symmetry_space_group_name_H-M  'P 1'
_symmetry_Int_Tables_number     1

_symmetry_equiv_pos_as_xyz 'x,y,z'

loop_
_atom_site_label
_atom_site_type_symbol
_atom_site_fract_x
_atom_site_fract_y
_atom_site_fract_z
_atom_site_charge
Br1      Br     0.697440000000     0.603240000000     0.985120000000    -0.259057   
Br2      Br     0.213200000000     0.444020000000     0.061940000000    -0.246588   
Br3      Br     0.430380000000     0.824600000000     0.018180000000    -0.249956   
Br4      Br     0.470300000000     0.207370000000     0.138810000000    -0.241089   
Br5      Br     0.533820000000     0.132860000000     0.674220000000    -0.243903   
Br6      Br     0.392000000000     0.034110000000     0.213600000000    -0.233359   
Br7      Br     0.130620000000     0.541630000000     0.851270000000    -0.26142    
Br8      Br     0.111130000000     0.528780000000     0.320050000000    -0.243857   
Br9      Br     0.310690000000     0.934100000000     0.493650000000    -0.24928    
Br10     Br     0.824960000000     0.106180000000     0.550010000000    -0.247848   
Br11     Br     0.952070000000     0.853010000000     0.495740000000    -0.256735   
Br12     Br     0.938240000000     0.204200000000     0.672720000000    -0.237342   
C1       C      0.983820000000     0.127330000000     0.577720000000     0.411698   
C2       C      0.018730000000     0.949000000000     0.537960000000     0.411046   
C3       C      0.090120000000     0.056110000000     0.558390000000     0.402437   
C4       C      0.912910000000     0.022290000000     0.557690000000     0.415328   
C5       C      0.037130000000     0.514200000000     0.420620000000     0.407891   
C6       C      0.040230000000     0.552340000000     0.600160000000     0.400532   
C7       C      0.021490000000     0.444740000000     0.530420000000     0.401837   
C8       C      0.056310000000     0.623040000000     0.490500000000     0.404213   
C9       C      0.499510000000     0.029610000000     0.610730000000     0.407466   
C10      C      0.503240000000     0.982280000000     0.433820000000     0.404362   
C11      C      0.590520000000     0.000530000000     0.525960000000     0.402498   
C12      C      0.410760000000     0.010170000000     0.518690000000     0.408089   
C13      C      0.470940000000     0.016680000000     0.116160000000     0.411994   
C14      C      0.480900000000     0.048020000000     0.935860000000     0.401297   
C15      C      0.463550000000     0.123740000000     0.041640000000     0.411646   
C16      C      0.487870000000     0.941890000000     0.010310000000     0.407925   
C17      C      0.011240000000     0.484220000000     0.100480000000     0.404049   
C18      C      0.033000000000     0.534280000000     0.925350000000     0.410517   
C19      C      0.111330000000     0.514560000000     0.024760000000     0.410807   
C20      C      0.932830000000     0.502900000000     0.000770000000     0.400889   
C21      C      0.432580000000     0.555000000000     0.980000000000     0.402504   
C22      C      0.609700000000     0.520110000000     0.974580000000     0.410289   
C23      C      0.504130000000     0.447130000000     0.996440000000     0.402485   
C24      C      0.538080000000     0.625870000000     0.958200000000     0.408036   
C25      C      0.856880000000     0.533440000000     0.019580000000     0.0132643  
C26      C      0.678040000000     0.496290000000     0.931340000000     0.0190372  
C27      C      0.683650000000     0.540580000000     0.007410000000     0.13441    
C28      C      0.721980000000     0.469780000000     0.942920000000    -0.109425   
C29      C      0.819700000000     0.549820000000     0.987140000000    -0.103413   
C30      C      0.727080000000     0.513980000000     0.018500000000    -0.13559    
C31      C      0.795570000000     0.507810000000     0.967140000000     0.0204694  
C32      C      0.750910000000     0.498760000000     0.975020000000     0.0428083  
C33      C      0.865590000000     0.459090000000     0.972900000000     0.0106261  
C34      C      0.826330000000     0.474480000000     0.941310000000    -0.101926   
C35      C      0.357680000000     0.552310000000     0.942000000000     0.0126883  
C36      C      0.179460000000     0.556170000000     0.054100000000     0.0207073  
C37      C      0.186590000000     0.479470000000     0.011380000000     0.137399   
C38      C      0.218980000000     0.576590000000     0.026330000000    -0.109153   
C39      C      0.318870000000     0.521640000000     0.959160000000    -0.0993757  
C40      C      0.223470000000     0.500050000000     0.980450000000    -0.140062   
C41      C      0.294200000000     0.545290000000     0.998740000000     0.0170786  
C42      C      0.248770000000     0.538860000000     0.005080000000     0.0483766  
C43      C      0.365830000000     0.590420000000     0.019040000000     0.0112912  
C44      C      0.324170000000     0.564170000000     0.037230000000    -0.098797   
C45      C      0.530590000000     0.694390000000     0.906650000000     0.0130942  
C46      C      0.536800000000     0.871910000000     0.015860000000     0.0193004  
C47      C      0.460250000000     0.867670000000     0.976040000000     0.13262    
C48      C      0.558590000000     0.847450000000     0.974940000000    -0.107864   
C49      C      0.501960000000     0.737210000000     0.920070000000    -0.102157   
C50      C      0.482130000000     0.840530000000     0.935760000000    -0.133237   
C51      C      0.527340000000     0.767970000000     0.954080000000     0.0243504  
C52      C      0.524250000000     0.815520000000     0.952600000000     0.038395   
C53      C      0.575130000000     0.700190000000     0.979890000000     0.0141546  
C54      C      0.548250000000     0.742970000000     0.995160000000    -0.101202   
C55      C      0.512000000000     0.379180000000     0.048680000000     0.012686   
C56      C      0.414560000000     0.193610000000     0.037490000000     0.0196437  
C57      C      0.491250000000     0.197710000000     0.075980000000     0.133106   
C58      C      0.424380000000     0.238500000000     0.010540000000    -0.108456   
C59      C      0.475640000000     0.348500000000     0.070820000000    -0.1025     
C60      C      0.500450000000     0.245070000000     0.052940000000    -0.133402   
C61      C      0.454350000000     0.316710000000     0.035200000000     0.0196871  
C62      C      0.457460000000     0.269120000000     0.036640000000     0.042667   
C63      C      0.472290000000     0.371260000000     0.971680000000     0.0121671  
C64      C      0.434540000000     0.342380000000     0.994320000000    -0.102331   
C65      C      0.444320000000     0.068530000000     0.862260000000     0.0117673  
C66      C      0.527740000000     0.013860000000     0.688840000000     0.0194858  
C67      C      0.483940000000     0.088360000000     0.670750000000     0.135336   
C68      C      0.505380000000     0.011490000000     0.736140000000    -0.108261   
C69      C      0.458510000000     0.099870000000     0.821750000000    -0.101877   
C70      C      0.459540000000     0.084870000000     0.717350000000    -0.13665    
C71      C      0.495420000000     0.075200000000     0.795170000000     0.0213505  
C72      C      0.489010000000     0.059200000000     0.751550000000     0.0439834  
C73      C      0.523490000000     0.033400000000     0.864670000000     0.0115959  
C74      C      0.536730000000     0.063470000000     0.823460000000    -0.101172   
C75      C      0.481950000000     0.930430000000     0.368610000000     0.0115614  
C76      C      0.506560000000     0.026090000000     0.192300000000     0.0191039  
C77      C      0.429720000000     0.986520000000     0.184850000000     0.131856   
C78      C      0.522410000000     0.986860000000     0.223600000000    -0.107836   
C79      C      0.451080000000     0.946080000000     0.328360000000    -0.103145   
C80      C      0.444590000000     0.949690000000     0.221110000000    -0.132999   
C81      C      0.476900000000     0.978520000000     0.296290000000     0.0274116  
C82      C      0.482390000000     0.969180000000     0.250680000000     0.0385849  
C83      C      0.531740000000     0.000980000000     0.356390000000     0.0151675  
C84      C      0.499940000000     0.019480000000     0.319640000000    -0.103315   
C85      C      0.075580000000     0.535040000000     0.674940000000     0.0126061  
C86      C      0.026870000000     0.594510000000     0.864740000000     0.0196461  
C87      C      0.068760000000     0.518170000000     0.850370000000     0.134414   
C88      C      0.006700000000     0.592760000000     0.816090000000    -0.10926    
C89      C      0.089900000000     0.565370000000     0.715490000000    -0.103098   
C90      C      0.050740000000     0.517410000000     0.801010000000    -0.134468   
C91      C      0.048510000000     0.581460000000     0.741370000000     0.0196928  
C92      C      0.037920000000     0.565940000000     0.784400000000     0.0425008  
C93      C      0.001330000000     0.580100000000     0.670530000000     0.0109278  
C94      C      0.016010000000     0.609720000000     0.712260000000    -0.102003   
C95      C      0.024370000000     0.429340000000     0.165350000000     0.0125132  
C96      C      0.997260000000     0.521770000000     0.346360000000     0.0190215  
C97      C      0.074200000000     0.481730000000     0.350690000000     0.132153   
C98      C      0.980380000000     0.483000000000     0.314930000000    -0.108259   
C99      C      0.051260000000     0.441440000000     0.209350000000    -0.102835   
C100     C      0.057670000000     0.444800000000     0.315420000000    -0.133391   
C101     C      0.023340000000     0.472730000000     0.240690000000     0.0255018  
C102     C      0.019500000000     0.464860000000     0.286780000000     0.0386434  
C103     C      0.976060000000     0.501190000000     0.175580000000     0.0148858  
C104     C      0.002960000000     0.515600000000     0.217860000000    -0.102341   
C105     C      0.163660000000     0.053180000000     0.599200000000     0.0121337  
C106     C      0.341170000000     0.048200000000     0.489040000000     0.0191097  
C107     C      0.336580000000     0.976120000000     0.539470000000     0.134616   
C108     C      0.303290000000     0.071410000000     0.516650000000    -0.107808   
C109     C      0.201830000000     0.020240000000     0.584570000000    -0.0995151  
C110     C      0.299100000000     0.999000000000     0.568310000000    -0.135686   
C111     C      0.227850000000     0.040950000000     0.544310000000     0.0169456  
C112     C      0.273600000000     0.035330000000     0.540370000000     0.0435453  
C113     C      0.159040000000     0.087860000000     0.520270000000     0.0120305  
C114     C      0.199000000000     0.057890000000     0.504120000000    -0.09959    
C115     C      0.665280000000     0.034740000000     0.507210000000     0.0143357  
C116     C      0.843640000000     0.996730000000     0.598060000000     0.0209847  
C117     C      0.839770000000     0.045100000000     0.524400000000     0.134752   
C118     C      0.800600000000     0.970280000000     0.583690000000    -0.110104   
C119     C      0.701810000000     0.049940000000     0.541120000000    -0.104227   
C120     C      0.796740000000     0.019080000000     0.510650000000    -0.136139   
C121     C      0.726890000000     0.007460000000     0.559070000000     0.0215595  
C122     C      0.772100000000     0.000710000000     0.552490000000     0.0445472  
C123     C      0.659660000000     0.956440000000     0.547360000000     0.0118804  
C124     C      0.696820000000     0.971100000000     0.581530000000    -0.102409   
C125     C      0.033840000000     0.696420000000     0.451450000000     0.0142511  
C126     C      0.047200000000     0.871910000000     0.563070000000     0.0199031  
C127     C      0.010400000000     0.882440000000     0.484410000000     0.134066   
C128     C      0.082420000000     0.838730000000     0.542050000000    -0.110587   
C129     C      0.020440000000     0.741370000000     0.476410000000    -0.101401   
C130     C      0.043710000000     0.846700000000     0.464410000000    -0.135106   
C131     C      0.061280000000     0.766440000000     0.496770000000     0.0186748  
C132     C      0.061650000000     0.814010000000     0.501170000000     0.042996   
C133     C      0.106920000000     0.691930000000     0.494950000000     0.0123084  
C134     C      0.094750000000     0.735840000000     0.522820000000    -0.100247   
C135     C      0.047640000000     0.370050000000     0.564310000000     0.0108044  
C136     C      0.944180000000     0.200410000000     0.557010000000     0.0193875  
C137     C      0.988980000000     0.194490000000     0.630940000000     0.135359   
C138     C      0.965680000000     0.247640000000     0.545870000000    -0.106582   
C139     C      0.027950000000     0.344870000000     0.606570000000    -0.100677   
C140     C      0.012750000000     0.241100000000     0.620260000000    -0.135805   
C141     C      0.985630000000     0.319090000000     0.591730000000     0.0185163  
C142     C      0.984380000000     0.271510000000     0.588580000000     0.0446531  
C143     C      0.969020000000     0.377150000000     0.530000000000     0.0116778  
C144     C      0.949730000000     0.350580000000     0.571210000000    -0.100528   
Cu1      Cu     0.003580000000     0.028840000000     0.599290000000     0.853565   
Cu2      Cu     0.999680000000     0.047800000000     0.516420000000     0.852617   
Cu3      Cu     0.079830000000     0.525240000000     0.511700000000     0.849975   
Cu4      Cu     0.997940000000     0.542450000000     0.508900000000     0.845644   
Cu5      Cu     0.498220000000     0.963940000000     0.533230000000     0.84486    
Cu6      Cu     0.503070000000     0.047220000000     0.511440000000     0.857246   
Cu7      Cu     0.516900000000     0.037980000000     0.029640000000     0.854793   
Cu8      Cu     0.434280000000     0.027540000000     0.022380000000     0.849483   
Cu9      Cu     0.026400000000     0.467470000000     0.001740000000     0.851394   
Cu10     Cu     0.017710000000     0.550440000000     0.023980000000     0.848593   
Cu11     Cu     0.517770000000     0.527790000000     0.935890000000     0.846828   
Cu12     Cu     0.524190000000     0.545440000000     0.018880000000     0.851899   
H1       H      0.797090000000     0.575100000000     0.004660000000     0.0637042  
H2       H      0.686300000000     0.525560000000     0.907530000000     0.0461775  
H3       H      0.851900000000     0.435040000000     0.999600000000     0.0329304  
H4       H      0.808680000000     0.442360000000     0.929570000000     0.0468491  
H5       H      0.739290000000     0.462320000000     0.909810000000     0.0498403  
H6       H      0.748360000000     0.534470000000     0.042580000000     0.0661355  
H7       H      0.875290000000     0.564590000000     0.032780000000     0.0401991  
H8       H      0.655070000000     0.472050000000     0.912570000000     0.0372196  
H9       H      0.840200000000     0.492540000000     0.910500000000     0.0546215  
H10      H      0.717740000000     0.481810000000     0.037840000000     0.0607283  
H11      H      0.890420000000     0.439060000000     0.951960000000     0.0394907  
H12      H      0.835560000000     0.569600000000     0.958400000000     0.0618898  
H13      H      0.713670000000     0.435900000000     0.959730000000     0.0539675  
H14      H      0.665160000000     0.545390000000     0.040400000000     0.0275922  
H15      H      0.840880000000     0.515950000000     0.049680000000     0.0296058  
H16      H      0.296090000000     0.515820000000     0.929250000000     0.0502624  
H17      H      0.193060000000     0.542930000000     0.087310000000     0.0485061  
H18      H      0.354390000000     0.625090000000     0.006060000000     0.0345221  
H19      H      0.306330000000     0.587540000000     0.061520000000     0.0510843  
H20      H      0.237450000000     0.601450000000     0.048620000000     0.0525956  
H21      H      0.246100000000     0.470710000000     0.970380000000     0.0718066  
H22      H      0.375770000000     0.533240000000     0.914200000000     0.04045    
H23      H      0.155370000000     0.584780000000     0.062580000000     0.0413635  
H24      H      0.336100000000     0.533740000000     0.057750000000     0.0631384  
H25      H      0.207840000000     0.514450000000     0.948640000000     0.0745317  
H26      H      0.389620000000     0.597000000000     0.047960000000     0.0426604  
H27      H      0.332270000000     0.487250000000     0.970810000000     0.0583327  
H28      H      0.204700000000     0.597730000000     0.997670000000     0.0619461  
H29      H      0.167420000000     0.453810000000     0.990230000000     0.0316704  
H30      H      0.343280000000     0.584840000000     0.926840000000     0.0339155  
H31      H      0.494180000000     0.756520000000     0.887810000000     0.0477225  
H32      H      0.528670000000     0.845210000000     0.042450000000     0.0433778  
H33      H      0.605830000000     0.712540000000     0.961350000000     0.0381823  
H34      H      0.570410000000     0.765200000000     0.016720000000     0.0507292  
H35      H      0.590400000000     0.829600000000     0.985020000000     0.0490563  
H36      H      0.456430000000     0.816730000000     0.920680000000     0.0673467  
H37      H      0.509620000000     0.670460000000     0.885290000000     0.0389692  
H38      H      0.561740000000     0.896340000000     0.031440000000     0.0386056  
H39      H      0.520230000000     0.731170000000     0.017900000000     0.0684588  
H40      H      0.492020000000     0.865740000000     0.908400000000     0.0577732  
H41      H      0.586730000000     0.680330000000     0.010630000000     0.0471769  
H42      H      0.469640000000     0.725470000000     0.935890000000     0.0628539  
H43      H      0.568770000000     0.874500000000     0.949440000000     0.0559644  
H44      H      0.433300000000     0.890350000000     0.961340000000     0.0275353  
H45      H      0.559720000000     0.706440000000     0.885460000000     0.0339144  
H46      H      0.489400000000     0.329570000000     0.101050000000     0.0589054  
H47      H      0.395400000000     0.202720000000     0.069190000000     0.0531896  
H48      H      0.497620000000     0.346940000000     0.956450000000     0.0325818  
H49      H      0.420080000000     0.318880000000     0.967740000000     0.0470811  
H50      H      0.391440000000     0.256610000000     0.005490000000     0.0519438  
H51      H      0.521490000000     0.266720000000     0.076210000000     0.068738   
H52      H      0.523980000000     0.405320000000     0.074260000000     0.0404164  
H53      H      0.392520000000     0.170850000000     0.016000000000     0.04028    
H54      H      0.407120000000     0.366110000000     0.006270000000     0.0577961  
H55      H      0.521690000000     0.238670000000     0.021980000000     0.0612279  
H56      H      0.457180000000     0.392020000000     0.943170000000     0.0385576  
H57      H      0.448710000000     0.371780000000     0.084640000000     0.0623368  
H58      H      0.438760000000     0.229620000000     0.976280000000     0.0542259  
H59      H      0.523960000000     0.178730000000     0.078930000000     0.028049   
H60      H      0.541360000000     0.356550000000     0.039810000000     0.0300542  
H61      H      0.427940000000     0.107270000000     0.800790000000     0.0470549  
H62      H      0.561660000000     0.030190000000     0.692930000000     0.0432456  
H63      H      0.514430000000     0.997870000000     0.852000000000     0.0277221  
H64      H      0.563980000000     0.046430000000     0.803200000000     0.0509466  
H65      H      0.528890000000     0.994510000000     0.760720000000     0.0482019  
H66      H      0.451400000000     0.121000000000     0.728860000000     0.0691975  
H67      H      0.419850000000     0.088220000000     0.884020000000     0.0372651  
H68      H      0.533480000000     0.977600000000     0.676180000000     0.0370454  
H69      H      0.551410000000     0.096770000000     0.836490000000     0.060169   
H70      H      0.427200000000     0.065470000000     0.713050000000     0.0589285  
H71      H      0.553460000000     0.029350000000     0.887460000000     0.0384897  
H72      H      0.471620000000     0.133740000000     0.835050000000     0.056765   
H73      H      0.475390000000     0.988110000000     0.733750000000     0.0548645  
H74      H      0.459390000000     0.102590000000     0.645280000000     0.0243159  
H75      H      0.426580000000     0.037130000000     0.848550000000     0.033046   
H76      H      0.438850000000     0.914120000000     0.310530000000     0.0523705  
H77      H      0.494180000000     0.055650000000     0.213780000000     0.0495323  
H78      H      0.558580000000     0.979770000000     0.339430000000     0.0290138  
H79      H      0.518230000000     0.043280000000     0.295970000000     0.0533666  
H80      H      0.551240000000     0.998190000000     0.245390000000     0.0489756  
H81      H      0.414580000000     0.938800000000     0.241460000000     0.0720545  
H82      H      0.461040000000     0.912070000000     0.394830000000     0.0438332  
H83      H      0.536120000000     0.039380000000     0.172610000000     0.0432312  
H84      H      0.473530000000     0.041310000000     0.336440000000     0.0685848  
H85      H      0.457350000000     0.918090000000     0.202940000000     0.063257   
H86      H      0.548740000000     0.030780000000     0.373920000000     0.0391353  
H87      H      0.421230000000     0.965040000000     0.342300000000     0.0657865  
H88      H      0.535650000000     0.957810000000     0.201960000000     0.0578249  
H89      H      0.408150000000     0.968450000000     0.159010000000     0.0323735  
H90      H      0.507260000000     0.905140000000     0.355010000000     0.033576   
H91      H      0.114950000000     0.546930000000     0.737400000000     0.060899   
H92      H      0.057190000000     0.617590000000     0.864370000000     0.0469942  
H93      H      0.978480000000     0.551740000000     0.682720000000     0.0329197  
H94      H      0.985050000000     0.620530000000     0.731020000000     0.0462973  
H95      H      0.002080000000     0.629570000000     0.804700000000     0.049498   
H96      H      0.075040000000     0.498810000000     0.778460000000     0.0672742  
H97      H      0.106290000000     0.526020000000     0.654710000000     0.0405352  
H98      H      0.001490000000     0.610770000000     0.888070000000     0.0373684  
H99      H      0.033280000000     0.641970000000     0.700020000000     0.0541446  
H100     H      0.019480000000     0.495770000000     0.800500000000     0.0611168  
H101     H      0.981500000000     0.602760000000     0.646800000000     0.0384037  
H102     H      0.107770000000     0.596730000000     0.701920000000     0.0594007  
H103     H      0.973060000000     0.575370000000     0.816950000000     0.0540265  
H104     H      0.070600000000     0.481360000000     0.862640000000     0.027485   
H105     H      0.061420000000     0.501660000000     0.688410000000     0.0295486  
H106     H      0.060250000000     0.407890000000     0.226380000000     0.0512504  
H107     H      0.008590000000     0.551760000000     0.324850000000     0.0429862  
H108     H      0.946320000000     0.480380000000     0.187110000000     0.0285634  
H109     H      0.981380000000     0.537200000000     0.240640000000     0.0500539  
H110     H      0.951190000000     0.494840000000     0.293940000000     0.0479262  
H111     H      0.086950000000     0.433060000000     0.294460000000     0.0706295  
H112     H      0.047240000000     0.411270000000     0.140680000000     0.0433487  
H113     H      0.968390000000     0.534430000000     0.367450000000     0.039108   
H114     H      0.031160000000     0.538770000000     0.206790000000     0.0677452  
H115     H      0.044820000000     0.413680000000     0.334310000000     0.0594896  
H116     H      0.962890000000     0.532960000000     0.157970000000     0.0377289  
H117     H      0.083050000000     0.459900000000     0.199920000000     0.06711    
H118     H      0.967250000000     0.453940000000     0.336630000000     0.0560367  
H119     H      0.096660000000     0.463610000000     0.375710000000     0.0280137  
H120     H      0.996680000000     0.404740000000     0.174700000000     0.0329029  
H121     H      0.223750000000     0.015350000000     0.615280000000     0.0459153  
H122     H      0.325890000000     0.031420000000     0.458220000000     0.0479049  
H123     H      0.172550000000     0.122170000000     0.532060000000     0.0299443  
H124     H      0.217850000000     0.077710000000     0.477680000000     0.0498552  
H125     H      0.284860000000     0.095820000000     0.493860000000     0.0504796  
H126     H      0.276710000000     0.970440000000     0.580760000000     0.0684776  
H127     H      0.144140000000     0.036220000000     0.627320000000     0.0400399  
H128     H      0.364580000000     0.075750000000     0.476320000000     0.0414669  
H129     H      0.185310000000     0.026450000000     0.486400000000     0.0622612  
H130     H      0.314340000000     0.016330000000     0.598870000000     0.0588466  
H131     H      0.136190000000     0.094750000000     0.490640000000     0.0399163  
H132     H      0.187600000000     0.985720000000     0.574450000000     0.0579513  
H133     H      0.318980000000     0.093500000000     0.543820000000     0.0565075  
H134     H      0.356930000000     0.953910000000     0.563130000000     0.0269828  
H135     H      0.178890000000     0.085780000000     0.613350000000     0.0307784  
H136     H      0.723930000000     0.076910000000     0.525490000000     0.0651673  
H137     H      0.834190000000     0.024760000000     0.622840000000     0.0500117  
H138     H      0.675600000000     0.936330000000     0.518850000000     0.0329993  
H139     H      0.715310000000     0.938940000000     0.591720000000     0.0471797  
H140     H      0.782580000000     0.960680000000     0.615860000000     0.0513609  
H141     H      0.775860000000     0.041120000000     0.487570000000     0.0675584  
H142     H      0.645570000000     0.065960000000     0.496330000000     0.0425716  
H143     H      0.866300000000     0.971900000000     0.616470000000     0.0413686  
H144     H      0.681060000000     0.986310000000     0.612880000000     0.0572126  
H145     H      0.806680000000     0.988370000000     0.489410000000     0.0651843  
H146     H      0.635770000000     0.932640000000     0.565430000000     0.0393522  
H147     H      0.685100000000     0.067430000000     0.570790000000     0.0679722  
H148     H      0.809910000000     0.937590000000     0.565240000000     0.0598201  
H149     H      0.859120000000     0.052050000000     0.492300000000     0.0291597  
H150     H      0.682110000000     0.020360000000     0.476010000000     0.0302754  
H151     H      0.000350000000     0.762990000000     0.452360000000     0.0618306  
H152     H      0.019740000000     0.850740000000     0.578950000000     0.0457371  
H153     H      0.126930000000     0.702690000000     0.464280000000     0.0370061  
H154     H      0.126870000000     0.754940000000     0.529520000000     0.0482364  
H155     H      0.093310000000     0.814310000000     0.569610000000     0.0495161  
H156     H      0.028720000000     0.828790000000     0.434240000000     0.068299   
H157     H      0.002870000000     0.676540000000     0.441920000000     0.0406634  
H158     H      0.063880000000     0.892090000000     0.591090000000     0.0371483  
H159     H      0.079670000000     0.725370000000     0.556340000000     0.0545265  
H160     H      0.073140000000     0.866340000000     0.450370000000     0.0635364  
H161     H      0.128410000000     0.668700000000     0.516540000000     0.0402547  
H162     H      0.997420000000     0.732070000000     0.505260000000     0.066894   
H163     H      0.112500000000     0.859020000000     0.530620000000     0.0571711  
H164     H      0.004320000000     0.909660000000     0.457770000000     0.028523   
H165     H      0.051200000000     0.706340000000     0.418910000000     0.0343029  
H166     H      0.054520000000     0.321790000000     0.621120000000     0.0467714  
H167     H      0.911240000000     0.206990000000     0.574330000000     0.0571428  
H168     H      0.974830000000     0.351730000000     0.501610000000     0.029131   
H169     H      0.918230000000     0.331750000000     0.561800000000     0.0517973  
H170     H      0.940450000000     0.268880000000     0.526970000000     0.0511933  
H171     H      0.019540000000     0.259050000000     0.653520000000     0.0700103  
H172     H      0.077380000000     0.390960000000     0.575600000000     0.038785   
H173     H      0.936420000000     0.181740000000     0.524360000000     0.0463913  
H174     H      0.939610000000     0.376560000000     0.597790000000     0.0590214  
H175     H      0.045780000000     0.233880000000     0.603340000000     0.0595914  
H176     H      0.943530000000     0.402870000000     0.517660000000     0.0390525  
H177     H      0.019030000000     0.371100000000     0.633350000000     0.0556174  
H178     H      0.994340000000     0.241750000000     0.521780000000     0.0566339  
H179     H      0.013620000000     0.171720000000     0.649310000000     0.0259675  
H180     H      0.059750000000     0.343350000000     0.539300000000     0.0324024  
N1       N      0.655820000000     0.515760000000     0.972750000000    -0.180616   
N2       N      0.886850000000     0.499600000000     0.996120000000    -0.173463   
N3       N      0.157390000000     0.517150000000     0.029470000000    -0.179101   
N4       N      0.387230000000     0.564720000000     0.980850000000    -0.172896   
N5       N      0.494580000000     0.895440000000     0.001290000000    -0.180006   
N6       N      0.547790000000     0.671440000000     0.948420000000    -0.172349   
N7       N      0.457240000000     0.170320000000     0.050240000000    -0.179366   
N8       N      0.495020000000     0.401280000000     0.006060000000    -0.173768   
N9       N      0.501090000000     0.042180000000     0.656030000000    -0.181062   
N10      N      0.484020000000     0.053120000000     0.889260000000    -0.173983   
N11      N      0.469220000000     0.009290000000     0.162660000000    -0.177705   
N12      N      0.506090000000     0.970960000000     0.388310000000    -0.173767   
N13      N      0.040300000000     0.547450000000     0.880720000000    -0.180875   
N14      N      0.040520000000     0.558590000000     0.646850000000    -0.173499   
N15      N      0.035840000000     0.504990000000     0.374380000000    -0.17944    
N16      N      0.004350000000     0.471970000000     0.145320000000    -0.173677   
N17      N      0.364530000000     0.012120000000     0.516630000000    -0.180276   
N18      N      0.135590000000     0.065100000000     0.559010000000    -0.173812   
N19      N      0.866790000000     0.018290000000     0.558260000000    -0.1791     
N20      N      0.636690000000     0.997910000000     0.527820000000    -0.173059   
N21      N      0.027380000000     0.903100000000     0.527800000000    -0.18036    
N22      N      0.065250000000     0.668600000000     0.479670000000    -0.172638   
N23      N      0.973240000000     0.172630000000     0.587930000000    -0.179154   
N24      N      0.012650000000     0.399300000000     0.541980000000    -0.173776   
O1       O      0.991120000000     0.098030000000     0.610420000000    -0.388316   
O2       O      0.017030000000     0.962050000000     0.580160000000    -0.397324   
O3       O      0.070450000000     0.042890000000     0.595510000000    -0.40088    
O4       O      0.935730000000     0.016110000000     0.594860000000    -0.390751   
O5       O      0.932740000000     0.034570000000     0.520360000000    -0.394697   
O6       O      0.067460000000     0.060800000000     0.520920000000    -0.397759   
O7       O      0.012020000000     0.978540000000     0.505320000000    -0.394668   
O8       O      0.985870000000     0.114430000000     0.535520000000    -0.397606   
O9       O      0.074570000000     0.510860000000     0.442950000000    -0.387194   
O10      O      0.076710000000     0.539720000000     0.579720000000    -0.399431   
O11      O      0.062660000000     0.458420000000     0.526810000000    -0.399119   
O12      O      0.089140000000     0.594570000000     0.498000000000    -0.392958   
O13      O      0.015130000000     0.609140000000     0.492800000000    -0.397241   
O14      O      0.988650000000     0.473420000000     0.523770000000    -0.397599   
O15      O      0.003240000000     0.557340000000     0.577400000000    -0.396444   
O16      O      0.000740000000     0.526710000000     0.441240000000    -0.401055   
O17      O      0.500990000000     0.986170000000     0.599600000000    -0.398054   
O18      O      0.496430000000     0.950280000000     0.464120000000    -0.391055   
O19      O      0.566810000000     0.963530000000     0.532570000000    -0.398237   
O20      O      0.430130000000     0.972620000000     0.532780000000    -0.393185   
O21      O      0.434430000000     0.045740000000     0.506480000000    -0.397276   
O22      O      0.571250000000     0.039910000000     0.517500000000    -0.393937   
O23      O      0.508240000000     0.025110000000     0.445800000000    -0.40108    
O24      O      0.497740000000     0.061500000000     0.579690000000    -0.389133   
O25      O      0.508820000000     0.027650000000     0.097650000000    -0.400986   
O26      O      0.517100000000     0.046730000000     0.960260000000    -0.4004     
O27      O      0.503820000000     0.107010000000     0.039890000000    -0.397244   
O28      O      0.521870000000     0.967950000000     0.020140000000    -0.401976   
O29      O      0.447810000000     0.959180000000     0.008410000000    -0.390529   
O30      O      0.429060000000     0.097110000000     0.035600000000    -0.392125   
O31      O      0.441900000000     0.042970000000     0.954620000000    -0.397456   
O32      O      0.434970000000     0.013140000000     0.091460000000    -0.382145   
O33      O      0.018920000000     0.452530000000     0.070090000000    -0.392817   
O34      O      0.034730000000     0.490800000000     0.936310000000    -0.395975   
O35      O      0.093420000000     0.475950000000     0.011670000000    -0.393197   
O36      O      0.957920000000     0.467060000000     0.992880000000    -0.397045   
O37      O      0.950450000000     0.541690000000     0.013930000000    -0.399199   
O38      O      0.086430000000     0.550570000000     0.032800000000    -0.393056   
O39      O      0.025530000000     0.565610000000     0.956090000000    -0.396589   
O40      O      0.009180000000     0.527520000000     0.089160000000    -0.399409   
O41      O      0.450970000000     0.541840000000     0.942170000000    -0.399432   
O42      O      0.585820000000     0.514940000000     0.937920000000    -0.393793   
O43      O      0.504830000000     0.460830000000     0.954430000000    -0.399665   
O44      O      0.529820000000     0.597100000000     0.925320000000    -0.395591   
O45      O      0.537660000000     0.612250000000     0.000240000000    -0.395416   
O46      O      0.511770000000     0.476070000000     0.029380000000    -0.396757   
O47      O      0.590890000000     0.531720000000     0.012660000000    -0.397242   
O48      O      0.456410000000     0.559160000000     0.016760000000    -0.395511   


