data_structure

_audit_creation_method RASPA-1.0
_audit_creation_date 2023-6-4
_audit_author_name 'Poobodin Mano'

_cell_length_a    20.1953
_cell_length_b    20.6353
_cell_length_c    29.5208
_cell_angle_alpha 89.9989
_cell_angle_beta  89.9989
_cell_angle_gamma 94.7681
_cell_volume      12259.8

_symmetry_cell_setting          triclinic
_symmetry_space_group_name_Hall 'P 1'
_symmetry_space_group_name_H-M  'P 1'
_symmetry_Int_Tables_number     1

_symmetry_equiv_pos_as_xyz 'x,y,z'

loop_
_atom_site_label
_atom_site_type_symbol
_atom_site_fract_x
_atom_site_fract_y
_atom_site_fract_z
_atom_site_charge
C1       C      0.088510000000     0.912620000000     0.993660000000     0.420678   
C2       C      0.902530000000     0.082370000000     0.004580000000     0.419969   
C3       C      0.089970000000     0.094530000000     0.998210000000     0.407566   
C4       C      0.901100000000     0.899710000000     0.000680000000     0.406678   
C5       C      0.093770000000     0.892010000000     0.521420000000     0.397815   
C6       C      0.932270000000     0.084390000000     0.524600000000     0.420992   
C7       C      0.117080000000     0.074520000000     0.523660000000     0.407066   
C8       C      0.907810000000     0.901300000000     0.522160000000     0.405164   
C9       C      0.504630000000     0.496520000000     0.921060000000     0.501824   
C10      C      0.482340000000     0.502880000000     0.092800000000     0.491687   
C11      C      0.586290000000     0.421960000000     0.013860000000     0.467497   
C12      C      0.402320000000     0.576240000000     0.002300000000     0.470912   
C13      C      0.518250000000     0.477660000000     0.420570000000     0.471335   
C14      C      0.506550000000     0.500330000000     0.592000000000     0.479006   
C15      C      0.593020000000     0.400690000000     0.513300000000     0.470872   
C16      C      0.428830000000     0.574130000000     0.496580000000     0.494165   
C17      C      0.456950000000     0.464830000000     0.665660000000     0.0147551  
C18      C      0.570230000000     0.529720000000     0.853130000000     0.0228902  
C19      C      0.469740000000     0.448770000000     0.846130000000     0.351383   
C20      C      0.554140000000     0.559450000000     0.807080000000    -0.120338   
C21      C      0.493220000000     0.441610000000     0.707240000000    -0.0983128  
C22      C      0.450400000000     0.482130000000     0.802510000000    -0.206559   
C23      C      0.524600000000     0.499770000000     0.733310000000     0.00641335 
C24      C      0.511860000000     0.511240000000     0.778160000000     0.0494585  
C25      C      0.539300000000     0.563580000000     0.661000000000     0.0135054  
C26      C      0.572840000000     0.543200000000     0.704880000000    -0.0979697  
C27      C      0.485410000000     0.416090000000     0.350680000000     0.00921783 
C28      C      0.520760000000     0.551950000000     0.165650000000     0.0201774  
C29      C      0.418550000000     0.474490000000     0.164140000000     0.350286   
C30      C      0.548310000000     0.516010000000     0.205640000000    -0.117546   
C31      C      0.447630000000     0.439400000000     0.309410000000    -0.0968808  
C32      C      0.441480000000     0.440800000000     0.207260000000    -0.20239    
C33      C      0.491610000000     0.486780000000     0.280670000000     0.0105064  
C34      C      0.491880000000     0.484380000000     0.234160000000     0.0514812  
C35      C      0.566470000000     0.514850000000     0.346750000000     0.0116919  
C36      C      0.527550000000     0.541890000000     0.307700000000    -0.0965774  
C37      C      0.143780000000     0.805520000000     0.478800000000     0.0105997  
C38      C      0.403030000000     0.689110000000     0.502120000000     0.0226331  
C39      C      0.317990000000     0.606250000000     0.470380000000     0.348108   
C40      C      0.350930000000     0.716510000000     0.533070000000    -0.118942   
C41      C      0.170790000000     0.739360000000     0.488740000000    -0.0975308  
C42      C      0.263490000000     0.632290000000     0.499710000000    -0.203917   
C43      C      0.234740000000     0.747200000000     0.516090000000     0.00652778 
C44      C      0.281310000000     0.702550000000     0.513890000000     0.0485236  
C45      C      0.177650000000     0.831340000000     0.560270000000     0.0112676  
C46      C      0.244610000000     0.807150000000     0.546080000000    -0.097601   
C47      C      0.818460000000     0.840150000000     0.478790000000     0.011531   
C48      C      0.691490000000     0.579690000000     0.530640000000    -0.00126958 
C49      C      0.656770000000     0.622240000000     0.459650000000     0.329564   
C50      C      0.741180000000     0.636700000000     0.541810000000    -0.103546   
C51      C      0.831620000000     0.771450000000     0.464250000000    -0.0970343  
C52      C      0.713170000000     0.677060000000     0.460040000000    -0.190344   
C53      C      0.812590000000     0.724950000000     0.503060000000     0.00759185 
C54      C      0.760020000000     0.678610000000     0.500740000000     0.0454872  
C55      C      0.838290000000     0.812730000000     0.560140000000     0.00982051 
C56      C      0.849810000000     0.742540000000     0.546960000000    -0.0965599  
C57      C      0.708450000000     0.372290000000     0.503630000000     0.0174008  
C58      C      0.854460000000     0.148760000000     0.566890000000     0.0196871  
C59      C      0.890820000000     0.183380000000     0.488710000000     0.34584    
C60      C      0.781970000000     0.160190000000     0.555690000000    -0.118875   
C61      C      0.741150000000     0.313180000000     0.484980000000    -0.100765   
C62      C      0.819480000000     0.195570000000     0.475900000000    -0.20412    
C63      C      0.734400000000     0.256290000000     0.517800000000     0.00808245 
C64      C      0.778440000000     0.209160000000     0.517510000000     0.0488471  
C65      C      0.618050000000     0.288480000000     0.531620000000     0.0135289  
C66      C      0.676910000000     0.254690000000     0.551180000000    -0.0977514  
C67      C      0.203770000000     0.139730000000     0.480690000000     0.0146966  
C68      C      0.330760000000     0.397560000000     0.534520000000    -0.00899219 
C69      C      0.368030000000     0.351010000000     0.465190000000     0.32406    
C70      C      0.281490000000     0.340730000000     0.546850000000    -0.0989713  
C71      C      0.187950000000     0.208640000000     0.468830000000    -0.101032   
C72      C      0.306770000000     0.301270000000     0.464450000000    -0.185826   
C73      C      0.208970000000     0.252840000000     0.508450000000     0.0127105  
C74      C      0.261960000000     0.298610000000     0.506120000000     0.0490435  
C75      C      0.186920000000     0.161470000000     0.563320000000     0.0109509  
C76      C      0.174480000000     0.232480000000     0.552790000000    -0.0983774  
C77      C      0.363880000000     0.679730000000     0.029680000000     0.0137147  
C78      C      0.144290000000     0.831760000000     0.948810000000     0.0200025  
C79      C      0.192220000000     0.870420000000     0.023760000000     0.34527    
C80      C      0.159820000000     0.761590000000     0.959610000000    -0.119537   
C81      C      0.336360000000     0.736910000000     0.005190000000    -0.0979969  
C82      C      0.209020000000     0.801300000000     0.035150000000    -0.204454   
C83      C      0.266020000000     0.719330000000     0.988770000000     0.00806866 
C84      C      0.217280000000     0.761370000000     0.992640000000     0.0498781  
C85      C      0.286780000000     0.600820000000     0.985180000000     0.0128927  
C86      C      0.257980000000     0.657920000000     0.960330000000    -0.0971332  
C87      C      0.834490000000     0.815110000000     0.044310000000     0.0133977  
C88      C      0.580550000000     0.678180000000     0.984940000000    -0.00222946 
C89      C      0.624390000000     0.644380000000     0.055930000000     0.328289   
C90      C      0.636110000000     0.730540000000     0.975510000000    -0.102879   
C91      C      0.763120000000     0.826100000000     0.057270000000    -0.10007    
C92      C      0.676480000000     0.703090000000     0.057330000000    -0.189607   
C93      C      0.718050000000     0.805950000000     0.017540000000     0.0109805  
C94      C      0.675250000000     0.750810000000     0.017840000000     0.0446219  
C95      C      0.808790000000     0.834510000000     0.962260000000     0.0111852  
C96      C      0.736400000000     0.844180000000     0.974530000000    -0.0983048  
C97      C      0.615830000000     0.311010000000     0.031250000000     0.012197   
C98      C      0.838210000000     0.163210000000     0.966300000000     0.0204762  
C99      C      0.808130000000     0.127800000000     0.045650000000     0.344363   
C100     C      0.829270000000     0.234320000000     0.978210000000    -0.119107   
C101     C      0.675840000000     0.278400000000     0.050330000000    -0.0977359  
C102     C      0.794480000000     0.197740000000     0.058130000000    -0.202831   
C103     C      0.733840000000     0.283330000000     0.017340000000     0.00722432 
C104     C      0.780160000000     0.238300000000     0.016780000000     0.0495597  
C105     C      0.703520000000     0.398340000000     0.004510000000     0.0133536  
C106     C      0.737890000000     0.340750000000     0.984840000000    -0.0971244  
C107     C      0.178820000000     0.160330000000     0.039220000000     0.0118345  
C108     C      0.364000000000     0.354670000000     0.958660000000    -0.00803154 
C109     C      0.404990000000     0.318680000000     0.029850000000     0.334914   
C110     C      0.307710000000     0.300280000000     0.956800000000    -0.100676   
C111     C      0.252110000000     0.150100000000     0.030780000000    -0.0996893  
C112     C      0.348500000000     0.265950000000     0.036350000000    -0.19429    
C113     C      0.274650000000     0.189390000000     0.989130000000     0.0115175  
C114     C      0.313210000000     0.247100000000     0.992210000000     0.0449768  
C115     C      0.161710000000     0.176670000000     0.955490000000     0.0120365  
C116     C      0.235150000000     0.167920000000     0.947130000000    -0.0990308  
Cu1      Cu     0.991960000000     0.999070000000     0.957570000000     0.834688   
Cu2      Cu     0.998790000000     0.995460000000     0.040890000000     0.880217   
Cu3      Cu     0.012290000000     0.988800000000     0.481380000000     0.87049    
Cu4      Cu     0.012860000000     0.986700000000     0.564850000000     0.832908   
Cu5      Cu     0.543490000000     0.551480000000     0.009040000000     1.222      
Cu6      Cu     0.444880000000     0.446470000000     0.005280000000     1.21493    
Cu7      Cu     0.564110000000     0.537720000000     0.504870000000     1.22971    
Cu8      Cu     0.458880000000     0.438440000000     0.507920000000     1.21222    
F1       F      0.411710000000     0.425360000000     0.867630000000    -0.457508   
F2       F      0.381130000000     0.428960000000     0.138270000000    -0.413108   
F3       F      0.302560000000     0.540610000000     0.462220000000    -0.449112   
F4       F      0.603270000000     0.644200000000     0.436630000000    -0.451922   
F5       F      0.924210000000     0.165850000000     0.450180000000    -0.439217   
F6       F      0.420720000000     0.322090000000     0.445930000000    -0.450911   
F7       F      0.178690000000     0.902270000000     0.063610000000    -0.439135   
F8       F      0.650410000000     0.593100000000     0.078080000000    -0.451503   
F9       F      0.830640000000     0.097410000000     0.083860000000    -0.437249   
F10      F      0.428420000000     0.338690000000     0.071990000000    -0.427056   
H1       H      0.459910000000     0.407110000000     0.726940000000     0.0468473  
H2       H      0.608260000000     0.494470000000     0.847610000000     0.024682   
H3       H      0.503100000000     0.599370000000     0.669870000000     0.0285298  
H4       H      0.591090000000     0.588990000000     0.721890000000     0.0421429  
H5       H      0.602860000000     0.574830000000     0.791650000000     0.0472906  
H6       H      0.417070000000     0.448270000000     0.782350000000     0.0930093  
H7       H      0.435790000000     0.421520000000     0.646550000000     0.0373223  
H8       H      0.593630000000     0.569180000000     0.874910000000     0.0357534  
H9       H      0.616600000000     0.516220000000     0.696380000000     0.0496633  
H10      H      0.419690000000     0.522560000000     0.811530000000     0.0959641  
H11      H      0.577740000000     0.589190000000     0.639000000000     0.0374071  
H12      H      0.498310000000     0.406720000000     0.837290000000    -0.0218527  
H13      H      0.533810000000     0.412440000000     0.695460000000     0.0533347  
H14      H      0.526940000000     0.603480000000     0.812450000000     0.0545161  
H15      H      0.414940000000     0.492410000000     0.677070000000     0.0291987  
H16      H      0.429990000000     0.394660000000     0.290730000000     0.0550454  
H17      H      0.492860000000     0.592240000000     0.178850000000     0.0309935  
H18      H      0.606550000000     0.487150000000     0.332430000000     0.0357982  
H19      H      0.561160000000     0.576270000000     0.288250000000     0.052392   
H20      H      0.584440000000     0.549670000000     0.223670000000     0.057545   
H21      H      0.395520000000     0.427420000000     0.226840000000     0.0967612  
H22      H      0.449460000000     0.387690000000     0.372930000000     0.0766473  
H23      H      0.563190000000     0.574250000000     0.145580000000     0.0686923  
H24      H      0.489360000000     0.571780000000     0.322160000000     0.0683675  
H25      H      0.464300000000     0.395450000000     0.197930000000     0.113972   
H26      H      0.590520000000     0.556170000000     0.366500000000     0.0680412  
H27      H      0.385420000000     0.512250000000     0.174670000000    -0.014129   
H28      H      0.403570000000     0.463770000000     0.320950000000     0.0653943  
H29      H      0.577590000000     0.476850000000     0.192330000000     0.0729935  
H30      H      0.521890000000     0.382410000000     0.338620000000     0.043808   
H31      H      0.132960000000     0.708000000000     0.507760000000     0.0520289  
H32      H      0.405970000000     0.717630000000     0.470090000000     0.0384313  
H33      H      0.150240000000     0.793980000000     0.581890000000     0.0324682  
H34      H      0.271560000000     0.796100000000     0.577620000000     0.0440692  
H35      H      0.364880000000     0.769480000000     0.536480000000     0.0506279  
H36      H      0.215820000000     0.624880000000     0.481120000000     0.0917352  
H37      H      0.178270000000     0.833770000000     0.455340000000     0.0392963  
H38      H      0.452230000000     0.696300000000     0.519120000000     0.0460082  
H39      H      0.274230000000     0.846370000000     0.527420000000     0.0535662  
H40      H      0.257690000000     0.602320000000     0.530970000000     0.0952375  
H41      H      0.187380000000     0.875950000000     0.581210000000     0.0363471  
H42      H      0.317860000000     0.631750000000     0.437180000000    -0.013088   
H43      H      0.179480000000     0.716480000000     0.455430000000     0.0503972  
H44      H      0.353050000000     0.694060000000     0.567210000000     0.0553224  
H45      H      0.095240000000     0.797070000000     0.461020000000     0.0380876  
H46      H      0.805940000000     0.760250000000     0.431770000000     0.0495186  
H47      H      0.716320000000     0.542450000000     0.511040000000     0.0282904  
H48      H      0.784930000000     0.814750000000     0.568940000000     0.0308581  
H49      H      0.835830000000     0.710670000000     0.576160000000     0.0424936  
H50      H      0.785830000000     0.615890000000     0.555940000000     0.0441166  
H51      H      0.741800000000     0.671420000000     0.428360000000     0.0798016  
H52      H      0.832470000000     0.874840000000     0.450930000000     0.0451146  
H53      H      0.673340000000     0.556800000000     0.562800000000     0.0298581  
H54      H      0.903810000000     0.739130000000     0.541160000000     0.0526534  
H55      H      0.690850000000     0.724540000000     0.458720000000     0.10374    
H56      H      0.868160000000     0.826630000000     0.590770000000     0.0377672  
H57      H      0.673420000000     0.579550000000     0.441030000000    -0.0229633  
H58      H      0.885580000000     0.770000000000     0.457210000000     0.0576246  
H59      H      0.719430000000     0.667240000000     0.568080000000     0.0535273  
H60      H      0.764210000000     0.841680000000     0.484810000000     0.0338105  
H61      H      0.717740000000     0.298090000000     0.452150000000     0.0595205  
H62      H      0.878380000000     0.193490000000     0.583030000000     0.026914   
H63      H      0.596550000000     0.259840000000     0.502440000000     0.0476147  
H64      H      0.658280000000     0.203780000000     0.559200000000     0.046246   
H65      H      0.759170000000     0.176830000000     0.587400000000     0.048222   
H66      H      0.821320000000     0.234810000000     0.450200000000     0.0955984  
H67      H      0.736090000000     0.391190000000     0.534120000000     0.0295569  
H68      H      0.854230000000     0.108750000000     0.592130000000     0.0361467  
H69      H      0.694120000000     0.279330000000     0.583060000000     0.0495955  
H70      H      0.795840000000     0.151250000000     0.459150000000     0.103545   
H71      H      0.578500000000     0.288900000000     0.557840000000     0.0402185  
H72      H      0.915800000000     0.230120000000     0.501110000000    -0.0176574  
H73      H      0.794400000000     0.329100000000     0.479120000000     0.049884   
H74      H      0.754780000000     0.113500000000     0.545330000000     0.0585438  
H75      H      0.712700000000     0.411520000000     0.477670000000     0.0362672  
H76      H      0.210800000000     0.222770000000     0.435840000000     0.0546188  
H77      H      0.306010000000     0.433160000000     0.513410000000     0.0638331  
H78      H      0.240600000000     0.159350000000     0.571110000000     0.0316289  
H79      H      0.190410000000     0.262830000000     0.582400000000     0.0447331  
H80      H      0.236970000000     0.361280000000     0.561420000000     0.0479883  
H81      H      0.277070000000     0.312680000000     0.434210000000     0.0830665  
H82      H      0.189480000000     0.106580000000     0.452010000000     0.0458746  
H83      H      0.347850000000     0.422510000000     0.566170000000     0.0358074  
H84      H      0.120170000000     0.236060000000     0.548780000000     0.0586206  
H85      H      0.324230000000     0.251990000000     0.459570000000     0.104612   
H86      H      0.158200000000     0.145310000000     0.593980000000     0.0387985  
H87      H      0.357620000000     0.393700000000     0.444070000000    -0.00396157 
H88      H      0.133400000000     0.209240000000     0.463880000000     0.0719846  
H89      H      0.304080000000     0.310560000000     0.572970000000     0.0543507  
H90      H      0.258400000000     0.139240000000     0.485460000000     0.0335651  
H91      H      0.341970000000     0.780400000000     0.027210000000     0.0485794  
H92      H      0.185760000000     0.855390000000     0.928300000000     0.02761    
H93      H      0.253600000000     0.585930000000     0.014090000000     0.0401339  
H94      H      0.204910000000     0.642880000000     0.953250000000     0.0461017  
H95      H      0.171360000000     0.738360000000     0.926920000000     0.0487515  
H96      H      0.252450000000     0.803800000000     0.058110000000     0.0955011  
H97      H      0.417010000000     0.692920000000     0.037900000000     0.0378868  
H98      H      0.098560000000     0.829670000000     0.927670000000     0.0354984  
H99      H      0.284090000000     0.666770000000     0.927480000000     0.0516304  
H100     H      0.167110000000     0.777040000000     0.054900000000     0.10376    
H101     H      0.286560000000     0.558850000000     0.961510000000     0.0444671  
H102     H      0.237160000000     0.896480000000     0.008400000000    -0.0180686  
H103     H      0.367960000000     0.749030000000     0.975020000000     0.0527764  
H104     H      0.115280000000     0.734350000000     0.974560000000     0.0588907  
H105     H      0.337010000000     0.672280000000     0.062400000000     0.0362344  
H106     H      0.750500000000     0.801080000000     0.089620000000     0.0524483  
H107     H      0.540240000000     0.699310000000     0.004360000000     0.0293882  
H108     H      0.812120000000     0.782660000000     0.952890000000     0.0308372  
H109     H      0.704760000000     0.831140000000     0.944770000000     0.0435024  
H110     H      0.612280000000     0.772640000000     0.961160000000     0.04458    
H111     H      0.667970000000     0.728570000000     0.089670000000     0.0804741  
H112     H      0.868090000000     0.830100000000     0.072910000000     0.0481046  
H113     H      0.559320000000     0.660390000000     0.952150000000     0.030622   
H114     H      0.731830000000     0.896680000000     0.981110000000     0.0570435  
H115     H      0.726810000000     0.684940000000     0.058470000000     0.103799   
H116     H      0.823230000000     0.864660000000     0.932100000000     0.0382798  
H117     H      0.578990000000     0.656560000000     0.074430000000    -0.0234439  
H118     H      0.759880000000     0.878780000000     0.063960000000     0.0672748  
H119     H      0.670430000000     0.712240000000     0.949920000000     0.0538466  
H120     H      0.837940000000     0.762150000000     0.038810000000     0.0338307  
H121     H      0.691790000000     0.301900000000     0.082860000000     0.061273   
H122     H      0.791030000000     0.140920000000     0.951460000000     0.0274133  
H123     H      0.730770000000     0.416920000000     0.035230000000     0.0473236  
H124     H      0.790540000000     0.358220000000     0.978130000000     0.0465294  
H125     H      0.812450000000     0.257800000000     0.946880000000     0.0487249  
H126     H      0.754190000000     0.195470000000     0.083690000000     0.0948798  
H127     H      0.595290000000     0.282770000000     0.001600000000     0.03824    
H128     H      0.877270000000     0.162830000000     0.939770000000     0.0363217  
H129     H      0.713880000000     0.325390000000     0.952250000000     0.0510556  
H130     H      0.839370000000     0.221470000000     0.075000000000     0.105239   
H131     H      0.706350000000     0.438420000000     0.979190000000     0.042081   
H132     H      0.760000000000     0.101560000000     0.035660000000    -0.0166708  
H133     H      0.658730000000     0.226670000000     0.056890000000     0.0520734  
H134     H      0.877870000000     0.259330000000     0.988380000000     0.0597915  
H135     H      0.576060000000     0.309260000000     0.057420000000     0.0601822  
H136     H      0.280420000000     0.162150000000     0.062160000000     0.0563478  
H137     H      0.408440000000     0.338770000000     0.940800000000     0.0539947  
H138     H      0.155680000000     0.229520000000     0.959060000000     0.0313579  
H139     H      0.251870000000     0.192190000000     0.915310000000     0.046548   
H140     H      0.308740000000     0.281000000000     0.921870000000     0.05512    
H141     H      0.371410000000     0.223530000000     0.051040000000     0.0925773  
H142     H      0.161420000000     0.131210000000     0.069230000000     0.053599   
H143     H      0.347170000000     0.397460000000     0.940530000000     0.0708417  
H144     H      0.240590000000     0.115360000000     0.941370000000     0.0570587  
H145     H      0.311810000000     0.283120000000     0.060760000000     0.113619   
H146     H      0.132250000000     0.158910000000     0.925530000000     0.0388791  
H147     H      0.446390000000     0.298130000000     0.011200000000    -0.0200207  
H148     H      0.257000000000     0.097660000000     0.024120000000     0.0658384  
H149     H      0.259570000000     0.321760000000     0.961940000000     0.0585636  
H150     H      0.174560000000     0.212460000000     0.047420000000     0.0389009  
N1       N      0.511650000000     0.494630000000     0.874810000000    -0.219401   
N2       N      0.502940000000     0.507760000000     0.638010000000    -0.188448   
N3       N      0.475390000000     0.507050000000     0.138970000000    -0.207979   
N4       N      0.521850000000     0.470880000000     0.374500000000    -0.177055   
N5       N      0.384140000000     0.620230000000     0.491420000000    -0.213624   
N6       N      0.136540000000     0.843890000000     0.520420000000    -0.172934   
N7       N      0.635660000000     0.602570000000     0.505400000000    -0.257339   
N8       N      0.854710000000     0.855910000000     0.521230000000    -0.174046   
N9       N      0.891800000000     0.134720000000     0.525530000000    -0.202928   
N10      N      0.638460000000     0.355170000000     0.516200000000    -0.184271   
N11      N      0.387300000000     0.373440000000     0.510760000000    -0.249976   
N12      N      0.169640000000     0.120560000000     0.523340000000    -0.173724   
N13      N      0.137170000000     0.870070000000     0.990550000000    -0.202268   
N14      N      0.354080000000     0.619250000000     0.002850000000    -0.183175   
N15      N      0.606600000000     0.624340000000     0.009630000000    -0.255801   
N16      N      0.851830000000     0.850280000000     0.001850000000    -0.173256   
N17      N      0.854560000000     0.125850000000     0.006880000000    -0.201572   
N18      N      0.634000000000     0.378700000000     0.016940000000    -0.17943    
N19      N      0.381230000000     0.373850000000     0.005180000000    -0.24899    
N20      N      0.140010000000     0.143240000000     0.997860000000    -0.172456   
O1       O      0.060230000000     0.931380000000     0.957490000000    -0.39978    
O2       O      0.924570000000     0.066120000000     0.965750000000    -0.401      
O3       O      0.065860000000     0.071740000000     0.960700000000    -0.399517   
O4       O      0.918200000000     0.926590000000     0.962800000000    -0.399805   
O5       O      0.929200000000     0.919450000000     0.037680000000    -0.394173   
O6       O      0.068410000000     0.071150000000     0.036150000000    -0.391525   
O7       O      0.925160000000     0.057890000000     0.040900000000    -0.349984   
O8       O      0.071680000000     0.933890000000     0.032500000000    -0.352702   
O9       O      0.069980000000     0.912450000000     0.484200000000    -0.395529   
O10      O      0.954910000000     0.065040000000     0.486750000000    -0.352531   
O11      O      0.094430000000     0.051050000000     0.486010000000    -0.396055   
O12      O      0.930060000000     0.926470000000     0.484920000000    -0.400735   
O13      O      0.935740000000     0.917460000000     0.560010000000    -0.399914   
O14      O      0.089870000000     0.056230000000     0.561320000000    -0.398619   
O15      O      0.947680000000     0.056960000000     0.561780000000    -0.399817   
O16      O      0.078240000000     0.916890000000     0.559490000000    -0.395346   
O17      O      0.539060000000     0.539010000000     0.944050000000    -0.494675   
O18      O      0.529770000000     0.535950000000     0.073170000000    -0.452147   
O19      O      0.602990000000     0.482550000000     0.010400000000    -0.448715   
O20      O      0.462400000000     0.596510000000     0.010270000000    -0.487968   
O21      O      0.386860000000     0.515920000000     0.995640000000    -0.460338   
O22      O      0.525170000000     0.401230000000     0.014190000000    -0.455915   
O23      O      0.441050000000     0.467260000000     0.069380000000    -0.401617   
O24      O      0.464930000000     0.455130000000     0.941140000000    -0.455893   
O25      O      0.553760000000     0.522630000000     0.440400000000    -0.448612   
O26      O      0.548580000000     0.536000000000     0.569310000000    -0.491948   
O27      O      0.612940000000     0.460280000000     0.507710000000    -0.489204   
O28      O      0.490400000000     0.591780000000     0.500850000000    -0.458568   
O29      O      0.408950000000     0.513990000000     0.497270000000    -0.447925   
O30      O      0.531200000000     0.383360000000     0.515810000000    -0.453296   
O31      O      0.467320000000     0.458400000000     0.571970000000    -0.487931   
O32      O      0.479790000000     0.438620000000     0.443580000000    -0.440108   


