data_structure

_audit_creation_method RASPA-1.0
_audit_creation_date 2023-6-4
_audit_author_name 'Poobodin Mano'

_cell_length_a    20.3586
_cell_length_b    19.875
_cell_length_c    28.4666
_cell_angle_alpha 89.9988
_cell_angle_beta  89.9988
_cell_angle_gamma 94.769
_cell_volume      11478.5

_symmetry_cell_setting          triclinic
_symmetry_space_group_name_Hall 'P 1'
_symmetry_space_group_name_H-M  'P 1'
_symmetry_Int_Tables_number     1

_symmetry_equiv_pos_as_xyz 'x,y,z'

loop_
_atom_site_label
_atom_site_type_symbol
_atom_site_fract_x
_atom_site_fract_y
_atom_site_fract_z
_atom_site_charge
Br1      Br     0.396310000000     0.541450000000     0.843630000000    -0.25299    
Br2      Br     0.330290000000     0.398370000000     0.160240000000    -0.231725   
Br3      Br     0.526860000000     0.729150000000     0.580600000000    -0.240871   
Br4      Br     0.669620000000     0.582540000000     0.428540000000    -0.220198   
Br5      Br     0.889470000000     0.164890000000     0.581610000000    -0.242004   
Br6      Br     0.095130000000     0.262880000000     0.415890000000    -0.24783    
Br7      Br     0.133270000000     0.976490000000     0.947800000000    -0.249093   
Br8      Br     0.627150000000     0.550370000000     0.092050000000    -0.275415   
Br9      Br     0.921010000000     0.242510000000     0.143210000000    -0.235824   
Br10     Br     0.466690000000     0.332190000000     0.025450000000    -0.286826   
C1       C      0.041050000000     0.942450000000     0.035590000000     0.409337   
C2       C      0.870470000000     0.125920000000     0.073300000000     0.41001    
C3       C      0.051300000000     0.131690000000     0.044770000000     0.412637   
C4       C      0.859360000000     0.936210000000     0.063780000000     0.4041     
C5       C      0.154740000000     0.933640000000     0.497900000000     0.399605   
C6       C      0.929550000000     0.053100000000     0.498170000000     0.410148   
C7       C      0.105180000000     0.113300000000     0.490690000000     0.412985   
C8       C      0.975950000000     0.871440000000     0.506780000000     0.404829   
C9       C      0.487270000000     0.518440000000     0.946090000000     0.479736   
C10      C      0.421640000000     0.528170000000     0.117590000000     0.481048   
C11      C      0.546800000000     0.445690000000     0.051640000000     0.408561   
C12      C      0.367320000000     0.602620000000     0.014510000000     0.470487   
C13      C      0.551620000000     0.505490000000     0.431270000000     0.457333   
C14      C      0.543730000000     0.503050000000     0.609890000000     0.475884   
C15      C      0.623540000000     0.402410000000     0.523640000000     0.476365   
C16      C      0.477370000000     0.598210000000     0.520470000000     0.478104   
C17      C      0.500180000000     0.452970000000     0.684320000000     0.0141103  
C18      C      0.569540000000     0.543360000000     0.883800000000     0.0273366  
C19      C      0.458210000000     0.479130000000     0.866120000000     0.139667   
C20      C      0.572020000000     0.558400000000     0.830980000000    -0.112491   
C21      C      0.540250000000     0.430220000000     0.725960000000    -0.0983283  
C22      C      0.494120000000     0.448670000000     0.824890000000    -0.138863   
C23      C      0.562610000000     0.491400000000     0.755580000000     0.0136257  
C24      C      0.544020000000     0.499050000000     0.801480000000     0.0454176  
C25      C      0.568550000000     0.565250000000     0.684020000000     0.0126395  
C26      C      0.604860000000     0.544750000000     0.728340000000    -0.0979992  
C27      C      0.526010000000     0.445980000000     0.356520000000     0.0156879  
C28      C      0.421580000000     0.595970000000     0.190120000000     0.0210204  
C29      C      0.367560000000     0.479980000000     0.192410000000     0.137607   
C30      C      0.471060000000     0.580680000000     0.228070000000    -0.109925   
C31      C      0.459060000000     0.451740000000     0.332700000000    -0.100638   
C32      C      0.412680000000     0.460030000000     0.232570000000    -0.138347   
C33      C      0.460200000000     0.517960000000     0.305670000000     0.0153532  
C34      C      0.444690000000     0.521430000000     0.258830000000     0.0311147  
C35      C      0.547570000000     0.572500000000     0.358140000000     0.0133807  
C36      C      0.480080000000     0.579280000000     0.335990000000    -0.100211   
C37      C      0.258760000000     0.906680000000     0.537150000000     0.0108991  
C38      C      0.370660000000     0.633750000000     0.496170000000     0.0195421  
C39      C      0.439930000000     0.706280000000     0.552690000000     0.135461   
C40      C      0.349540000000     0.696180000000     0.470700000000    -0.109702   
C41      C      0.283500000000     0.837230000000     0.547610000000    -0.0993618  
C42      C      0.415870000000     0.770060000000     0.530010000000    -0.13853    
C43      C      0.303150000000     0.800420000000     0.503390000000     0.0138577  
C44      C      0.350840000000     0.755590000000     0.504180000000     0.0313439  
C45      C      0.236510000000     0.873460000000     0.453440000000     0.0118144  
C46      C      0.254840000000     0.801630000000     0.462800000000    -0.0991952  
C47      C      0.920000000000     0.771200000000     0.468430000000     0.0115931  
C48      C      0.721430000000     0.598920000000     0.566610000000    -0.00260639 
C49      C      0.725110000000     0.588360000000     0.482880000000     0.102993   
C50      C      0.785440000000     0.645640000000     0.567640000000    -0.0949801  
C51      C      0.924230000000     0.695420000000     0.475080000000    -0.101923   
C52      C      0.783660000000     0.639870000000     0.476300000000    -0.123388   
C53      C      0.888410000000     0.674660000000     0.520050000000     0.0193392  
C54      C      0.823650000000     0.649150000000     0.521350000000     0.0256637  
C55      C      0.921150000000     0.783700000000     0.558100000000     0.0105679  
C56      C      0.923720000000     0.707150000000     0.562090000000    -0.101551   
C57      C      0.644350000000     0.285850000000     0.546920000000     0.0149031  
C58      C      0.857400000000     0.123140000000     0.453300000000     0.0225496  
C59      C      0.838300000000     0.101540000000     0.540670000000     0.13486    
C60      C      0.835180000000     0.193480000000     0.463300000000    -0.111033   
C61      C      0.665490000000     0.227260000000     0.516990000000    -0.0992455  
C62      C      0.770730000000     0.128210000000     0.529880000000    -0.135432   
C63      C      0.736260000000     0.239850000000     0.499970000000     0.0165438  
C64      C      0.778240000000     0.189730000000     0.497890000000     0.0431043  
C65      C      0.734740000000     0.364160000000     0.511710000000     0.0163462  
C66      C      0.753720000000     0.308740000000     0.478220000000    -0.100199   
C67      C      0.411230000000     0.361930000000     0.471070000000    -0.00365974 
C68      C      0.146110000000     0.217600000000     0.530140000000     0.0256681  
C69      C      0.158490000000     0.204150000000     0.441160000000     0.136602   
C70      C      0.177150000000     0.288980000000     0.520810000000    -0.113695   
C71      C      0.357350000000     0.304000000000     0.471650000000    -0.0869467  
C72      C      0.227520000000     0.240790000000     0.445500000000    -0.137922   
C73      C      0.295290000000     0.322190000000     0.497120000000     0.00634053 
C74      C      0.236140000000     0.286520000000     0.488340000000     0.0448377  
C75      C      0.362070000000     0.422270000000     0.533320000000    -0.00375709 
C76      C      0.304240000000     0.369110000000     0.539380000000    -0.0869598  
C77      C      0.339160000000     0.716590000000     0.992430000000     0.0175107  
C78      C      0.081290000000     0.834270000000     0.056970000000     0.0142561  
C79      C      0.117690000000     0.889580000000     0.980320000000     0.132468   
C80      C      0.149200000000     0.808950000000     0.064470000000    -0.106676   
C81      C      0.280040000000     0.753600000000     0.975390000000    -0.103142   
C82      C      0.185620000000     0.860740000000     0.985510000000    -0.134856   
C83      C      0.224870000000     0.749050000000     0.011630000000     0.0151218  
C84      C      0.184610000000     0.800390000000     0.018260000000     0.0293665  
C85      C      0.249850000000     0.626290000000     0.016950000000     0.0146247  
C86      C      0.216360000000     0.684290000000     0.040310000000    -0.100621   
C87      C      0.808010000000     0.834250000000     0.103880000000     0.0116643  
C88      C      0.535860000000     0.715360000000     0.047270000000    -0.00158668 
C89      C      0.600700000000     0.642120000000     0.091790000000     0.113158   
C90      C      0.589190000000     0.773380000000     0.046840000000    -0.0948824  
C91      C      0.741120000000     0.823160000000     0.128920000000    -0.100913   
C92      C      0.659410000000     0.695410000000     0.097270000000    -0.125628   
C93      C      0.684920000000     0.822330000000     0.093700000000     0.0173291  
C94      C      0.643230000000     0.766580000000     0.083070000000     0.0243832  
C95      C      0.751820000000     0.888110000000     0.035540000000     0.0129458  
C96      C      0.688200000000     0.886000000000     0.063950000000    -0.101427   
C97      C      0.662660000000     0.430980000000     0.074940000000    -0.0273269  
C98      C      0.760410000000     0.161020000000     0.058540000000     0.015736   
C99      C      0.830120000000     0.218980000000     0.122790000000     0.131322   
C100     C      0.734640000000     0.227840000000     0.044590000000    -0.109424   
C101     C      0.689080000000     0.384440000000     0.112990000000    -0.0818799  
C102     C      0.799360000000     0.286200000000     0.111570000000    -0.136655   
C103     C      0.681430000000     0.311580000000     0.095660000000     0.00638234 
C104     C      0.733740000000     0.274430000000     0.086610000000     0.0353829  
C105     C      0.589290000000     0.333160000000     0.042760000000    -0.0318095  
C106     C      0.611490000000     0.287850000000     0.081840000000    -0.0798201  
C107     C      0.162280000000     0.181050000000     0.067000000000     0.0128286  
C108     C      0.292360000000     0.407240000000     0.987870000000     0.00094945 
C109     C      0.380490000000     0.333330000000     0.998840000000     0.131473   
C110     C      0.253410000000     0.343250000000     0.967590000000    -0.0985576  
C111     C      0.220530000000     0.171570000000     0.033850000000    -0.10255    
C112     C      0.335500000000     0.271670000000     0.012610000000    -0.134484   
C113     C      0.220460000000     0.224450000000     0.995300000000     0.0216785  
C114     C      0.266730000000     0.278040000000     0.993210000000     0.0323632  
C115     C      0.100030000000     0.230080000000     0.000230000000     0.0168782  
C116     C      0.157260000000     0.220720000000     0.966960000000    -0.104585   
Cu1      Cu     0.942360000000     0.038400000000     0.012430000000     0.861234   
Cu2      Cu     0.968690000000     0.029310000000     0.096730000000     0.844174   
Cu3      Cu     0.038690000000     0.987420000000     0.455330000000     0.856524   
Cu4      Cu     0.043800000000     0.996800000000     0.541740000000     0.85245    
Cu5      Cu     0.501930000000     0.577860000000     0.038230000000     1.17446    
Cu6      Cu     0.410570000000     0.468480000000     0.025830000000     1.18121    
Cu7      Cu     0.605720000000     0.548130000000     0.521660000000     1.18313    
Cu8      Cu     0.495990000000     0.452590000000     0.519830000000     1.19929    
H1       H      0.512030000000     0.388790000000     0.745020000000     0.0456944  
H2       H      0.606390000000     0.506860000000     0.892270000000     0.0296622  
H3       H      0.527890000000     0.595880000000     0.695010000000     0.0413484  
H4       H      0.618370000000     0.591600000000     0.748350000000     0.0471853  
H5       H      0.624860000000     0.571320000000     0.822670000000     0.0488653  
H6       H      0.520140000000     0.405220000000     0.837720000000     0.060617   
H7       H      0.485160000000     0.408060000000     0.662330000000     0.0387428  
H8       H      0.584920000000     0.590810000000     0.903020000000     0.0397087  
H9       H      0.651510000000     0.523460000000     0.717930000000     0.0517708  
H10      H      0.455140000000     0.429470000000     0.799870000000     0.0696244  
H11      H      0.602940000000     0.598550000000     0.662260000000     0.0456861  
H12      H      0.427940000000     0.437080000000     0.883520000000     0.0241744  
H13      H      0.584710000000     0.407790000000     0.712260000000     0.0533418  
H14      H      0.544210000000     0.602960000000     0.823400000000     0.0703302  
H15      H      0.454680000000     0.473800000000     0.697700000000     0.0375028  
H16      H      0.449910000000     0.406190000000     0.310500000000     0.0472451  
H17      H      0.377350000000     0.614090000000     0.207500000000     0.0262884  
H18      H      0.585460000000     0.574250000000     0.329920000000     0.0407386  
H19      H      0.479630000000     0.628820000000     0.318670000000     0.0447542  
H20      H      0.484140000000     0.628370000000     0.246840000000     0.0475631  
H21      H      0.380790000000     0.427390000000     0.256420000000     0.0686792  
H22      H      0.523620000000     0.399900000000     0.378860000000     0.0342848  
H23      H      0.443090000000     0.638010000000     0.167720000000     0.0354801  
H24      H      0.443250000000     0.580770000000     0.364770000000     0.0522122  
H25      H      0.452120000000     0.430360000000     0.218330000000     0.0769153  
H26      H      0.557850000000     0.616500000000     0.381880000000     0.0488636  
H27      H      0.324410000000     0.501310000000     0.209130000000     0.0188915  
H28      H      0.419690000000     0.450490000000     0.359810000000     0.0540908  
H29      H      0.517010000000     0.566710000000     0.210830000000     0.063598   
H30      H      0.563150000000     0.439400000000     0.328580000000     0.032532   
H31      H      0.323140000000     0.844450000000     0.574070000000     0.0481268  
H32      H      0.332800000000     0.617450000000     0.522970000000     0.0294872  
H33      H      0.281120000000     0.904330000000     0.440760000000     0.0308177  
H34      H      0.276430000000     0.783930000000     0.429620000000     0.044461   
H35      H      0.299390000000     0.682070000000     0.456670000000     0.046457   
H36      H      0.414710000000     0.809660000000     0.557170000000     0.0685016  
H37      H      0.236190000000     0.926020000000     0.569480000000     0.0399283  
H38      H      0.372090000000     0.592340000000     0.469920000000     0.0309047  
H39      H      0.209730000000     0.768340000000     0.471100000000     0.0526897  
H40      H      0.453040000000     0.789670000000     0.503700000000     0.0767819  
H41      H      0.199360000000     0.871500000000     0.424760000000     0.0389562  
H42      H      0.406600000000     0.692900000000     0.582830000000     0.0175819  
H43      H      0.242790000000     0.805390000000     0.564650000000     0.0552505  
H44      H      0.383230000000     0.709000000000     0.440680000000     0.0540367  
H45      H      0.302220000000     0.942090000000     0.528350000000     0.0306177  
H46      H      0.906970000000     0.667690000000     0.443210000000     0.0476556  
H47      H      0.732540000000     0.545490000000     0.571600000000     0.0297119  
H48      H      0.869590000000     0.796230000000     0.564130000000     0.0340221  
H49      H      0.904340000000     0.689710000000     0.596660000000     0.0461406  
H50      H      0.815420000000     0.625830000000     0.596230000000     0.044606   
H51      H      0.812450000000     0.619900000000     0.447250000000     0.0622806  
H52      H      0.949530000000     0.787240000000     0.436910000000     0.0394363  
H53      H      0.690720000000     0.612870000000     0.596680000000     0.0402204  
H54      H      0.976160000000     0.695290000000     0.561690000000     0.0534344  
H55      H      0.766540000000     0.689340000000     0.465710000000     0.0731657  
H56      H      0.951680000000     0.807760000000     0.586860000000     0.041359   
H57      H      0.743300000000     0.537570000000     0.487770000000     0.0198088  
H58      H      0.977020000000     0.685560000000     0.478430000000     0.053662   
H59      H      0.773500000000     0.697520000000     0.577090000000     0.0561543  
H60      H      0.867980000000     0.780980000000     0.461130000000     0.0339347  
H61      H      0.656050000000     0.179830000000     0.537250000000     0.0462945  
H62      H      0.816500000000     0.091500000000     0.436260000000     0.0310939  
H63      H      0.766210000000     0.363770000000     0.543650000000     0.0349591  
H64      H      0.807270000000     0.318440000000     0.471050000000     0.0516927  
H65      H      0.820120000000     0.215140000000     0.429320000000     0.0530033  
H66      H      0.738320000000     0.087910000000     0.512460000000     0.0596564  
H67      H      0.590230000000     0.278900000000     0.552820000000     0.0383065  
H68      H      0.899040000000     0.128620000000     0.427900000000     0.0460031  
H69      H      0.726810000000     0.312270000000     0.444450000000     0.0550278  
H70      H      0.747940000000     0.140510000000     0.563960000000     0.0696783  
H71      H      0.745260000000     0.413720000000     0.493990000000     0.0382544  
H72      H      0.830100000000     0.053370000000     0.560530000000     0.0232384  
H73      H      0.633130000000     0.222160000000     0.485530000000     0.0531203  
H74      H      0.877280000000     0.226180000000     0.477840000000     0.0753636  
H75      H      0.668460000000     0.283250000000     0.581850000000     0.0316003  
H76      H      0.347830000000     0.289970000000     0.434410000000     0.0423024  
H77      H      0.178480000000     0.191520000000     0.554480000000     0.0350195  
H78      H      0.348700000000     0.460940000000     0.507480000000     0.0328994  
H79      H      0.260130000000     0.397590000000     0.544720000000     0.043978   
H80      H      0.189630000000     0.310720000000     0.555820000000     0.0506647  
H81      H      0.263100000000     0.201390000000     0.448040000000     0.0593256  
H82      H      0.457810000000     0.341960000000     0.459200000000     0.0313692  
H83      H      0.098310000000     0.220790000000     0.548640000000     0.0461103  
H84      H      0.312180000000     0.338520000000     0.571270000000     0.0504274  
H85      H      0.238570000000     0.270570000000     0.412980000000     0.0713938  
H86      H      0.372220000000     0.448000000000     0.567490000000     0.033264   
H87      H      0.161660000000     0.163420000000     0.414670000000     0.0279629  
H88      H      0.376250000000     0.259920000000     0.489710000000     0.049805   
H89      H      0.140620000000     0.320470000000     0.504760000000     0.0753962  
H90      H      0.398220000000     0.401160000000     0.445550000000     0.0312458  
H91      H      0.298900000000     0.806790000000     0.968710000000     0.0485308  
H92      H      0.049120000000     0.793090000000     0.040180000000     0.0293426  
H93      H      0.243770000000     0.581230000000     0.040200000000     0.0405334  
H94      H      0.237890000000     0.693750000000     0.075830000000     0.0530227  
H95      H      0.142510000000     0.761880000000     0.085420000000     0.0470018  
H96      H      0.201270000000     0.847130000000     0.949580000000     0.0670062  
H97      H      0.376460000000     0.716930000000     0.963840000000     0.0380717  
H98      H      0.059410000000     0.843730000000     0.091920000000     0.0378772  
H99      H      0.163120000000     0.667610000000     0.044040000000     0.0477751  
H100     H      0.222250000000     0.900350000000     0.999480000000     0.0739624  
H101     H      0.224490000000     0.612710000000     0.983240000000     0.0354666  
H102     H      0.086330000000     0.855270000000     0.957110000000     0.0219616  
H103     H      0.261080000000     0.731040000000     0.941810000000     0.0582556  
H104     H      0.179420000000     0.846430000000     0.086080000000     0.0572541  
H105     H      0.363170000000     0.744680000000     0.022500000000     0.0313477  
H106     H      0.740680000000     0.777770000000     0.151360000000     0.0465117  
H107     H      0.502260000000     0.719150000000     0.077860000000     0.0279812  
H108     H      0.750900000000     0.842860000000     0.012440000000     0.0331311  
H109     H      0.646740000000     0.890780000000     0.039420000000     0.0444572  
H110     H      0.563380000000     0.819510000000     0.053740000000     0.0430518  
H111     H      0.674500000000     0.693440000000     0.134580000000     0.0593726  
H112     H      0.847650000000     0.844660000000     0.130390000000     0.0378507  
H113     H      0.506830000000     0.719650000000     0.014620000000     0.0342082  
H114     H      0.689510000000     0.930960000000     0.087320000000     0.053657   
H115     H      0.700970000000     0.681260000000     0.075020000000     0.0713367  
H116     H      0.754430000000     0.933740000000     0.012730000000     0.0369195  
H117     H      0.566730000000     0.646200000000     0.122120000000     0.0168719  
H118     H      0.736440000000     0.866100000000     0.153390000000     0.0545272  
H119     H      0.611930000000     0.777010000000     0.011280000000     0.0519059  
H120     H      0.817600000000     0.786370000000     0.085890000000     0.030462   
H121     H      0.740990000000     0.402500000000     0.120650000000     0.0470831  
H122     H      0.724310000000     0.134490000000     0.082980000000     0.0274245  
H123     H      0.618910000000     0.326100000000     0.010530000000     0.0445368  
H124     H      0.604620000000     0.233880000000     0.071700000000     0.0448116  
H125     H      0.686440000000     0.217710000000     0.026890000000     0.0487329  
H126     H      0.793680000000     0.312990000000     0.145420000000     0.0680499  
H127     H      0.655600000000     0.482910000000     0.086240000000     0.119514   
H128     H      0.762220000000     0.128840000000     0.026660000000     0.0367171  
H129     H      0.579040000000     0.292990000000     0.112840000000     0.0590433  
H130     H      0.833170000000     0.318550000000     0.088730000000     0.076431   
H131     H      0.537100000000     0.323530000000     0.034790000000     0.125772   
H132     H      0.802980000000     0.194620000000     0.153040000000     0.0219348  
H133     H      0.660080000000     0.388610000000     0.145780000000     0.0558858  
H134     H      0.768300000000     0.252480000000     0.017770000000     0.0598296  
H135     H      0.698000000000     0.433910000000     0.045030000000     0.0461295  
H136     H      0.266640000000     0.173350000000     0.054630000000     0.0518158  
H137     H      0.308230000000     0.441660000000     0.958520000000     0.0379974  
H138     H      0.106150000000     0.282130000000     0.014860000000     0.0347715  
H139     H      0.157770000000     0.257110000000     0.937410000000     0.0496571  
H140     H      0.266630000000     0.337600000000     0.929990000000     0.0512003  
H141     H      0.355750000000     0.225560000000     0.998380000000     0.0660676  
H142     H      0.159700000000     0.140430000000     0.093950000000     0.0450027  
H143     H      0.259040000000     0.434410000000     0.010690000000     0.0414286  
H144     H      0.149680000000     0.169770000000     0.950720000000     0.0698736  
H145     H      0.333520000000     0.268700000000     0.051610000000     0.0819311  
H146     H      0.052870000000     0.225360000000     0.980340000000     0.0424403  
H147     H      0.387500000000     0.335780000000     0.960030000000     0.0137427  
H148     H      0.213830000000     0.120500000000     0.017720000000     0.0652862  
H149     H      0.200420000000     0.352550000000     0.969340000000     0.0493864  
H150     H      0.171390000000     0.230410000000     0.085300000000     0.0439195  
N1       N      0.504200000000     0.514580000000     0.899700000000    -0.193863   
N2       N      0.539570000000     0.505810000000     0.657770000000    -0.185524   
N3       N      0.402530000000     0.533800000000     0.163580000000    -0.194291   
N4       N      0.546800000000     0.507610000000     0.383360000000    -0.176397   
N5       N      0.434900000000     0.648190000000     0.519620000000    -0.194091   
N6       N      0.213010000000     0.903630000000     0.496930000000    -0.172906   
N7       N      0.684720000000     0.606040000000     0.522870000000    -0.228521   
N8       N      0.942580000000     0.809210000000     0.511050000000    -0.173925   
N9       N      0.875910000000     0.090310000000     0.497330000000    -0.180621   
N10      N      0.665080000000     0.351830000000     0.525510000000    -0.1876     
N11      N      0.135660000000     0.176850000000     0.487050000000    -0.182028   
N12      N      0.420960000000     0.390900000000     0.518050000000    -0.233876   
N13      N      0.083740000000     0.894230000000     0.026190000000    -0.180375   
N14      N      0.319890000000     0.646550000000     0.007300000000    -0.184782   
N15      N      0.565500000000     0.651090000000     0.047540000000    -0.235968   
N16      N      0.808030000000     0.888180000000     0.068120000000    -0.174769   
N17      N      0.824820000000     0.171260000000     0.082500000000    -0.180232   
N18      N      0.597540000000     0.404150000000     0.057530000000    -0.154003   
N19      N      0.350060000000     0.392710000000     0.016030000000    -0.233562   
N20      N      0.101120000000     0.181130000000     0.039160000000    -0.170841   
O1       O      0.011170000000     0.970400000000     0.001930000000    -0.375914   
O2       O      0.876580000000     0.104720000000     0.031100000000    -0.397931   
O3       O      0.013910000000     0.114860000000     0.009790000000    -0.395324   
O4       O      0.871720000000     0.962860000000     0.023410000000    -0.40375    
O5       O      0.893220000000     0.955680000000     0.100050000000    -0.397644   
O6       O      0.043020000000     0.101900000000     0.084570000000    -0.388179   
O7       O      0.904640000000     0.102710000000     0.106730000000    -0.372695   
O8       O      0.029480000000     0.957640000000     0.078450000000    -0.395533   
O9       O      0.123500000000     0.941300000000     0.459400000000    -0.400809   
O10      O      0.954900000000     0.035380000000     0.459290000000    -0.397446   
O11      O      0.090450000000     0.078860000000     0.453500000000    -0.394645   
O12      O      0.987270000000     0.896940000000     0.465850000000    -0.401638   
O13      O      0.995370000000     0.904020000000     0.543770000000    -0.401611   
O14      O      0.090810000000     0.089090000000     0.531520000000    -0.398098   
O15      O      0.955920000000     0.038910000000     0.537570000000    -0.379091   
O16      O      0.131740000000     0.954160000000     0.536970000000    -0.394129   
O17      O      0.523250000000     0.555010000000     0.974190000000    -0.47369    
O18      O      0.459290000000     0.575150000000     0.099100000000    -0.476822   
O19      O      0.555910000000     0.509080000000     0.060700000000    -0.398902   
O20      O      0.427720000000     0.624560000000     0.015400000000    -0.474463   
O21      O      0.351210000000     0.540250000000     0.021420000000    -0.467642   
O22      O      0.490020000000     0.421660000000     0.036200000000    -0.392873   
O23      O      0.401480000000     0.477430000000     0.093000000000    -0.44595    
O24      O      0.435690000000     0.485000000000     0.961180000000    -0.475432   
O25      O      0.592570000000     0.545790000000     0.453840000000    -0.41259    
O26      O      0.586820000000     0.541340000000     0.588350000000    -0.474987   
O27      O      0.647190000000     0.463420000000     0.520740000000    -0.486069   
O28      O      0.539280000000     0.612520000000     0.523140000000    -0.441359   
O29      O      0.454160000000     0.536950000000     0.517020000000    -0.486836   
O30      O      0.561670000000     0.388570000000     0.525110000000    -0.481056   
O31      O      0.503970000000     0.462750000000     0.587040000000    -0.481311   
O32      O      0.513850000000     0.462540000000     0.453420000000    -0.485273   


