data_structure

_audit_creation_method RASPA-1.0
_audit_creation_date 2023-6-4
_audit_author_name 'Poobodin Mano'

_cell_length_a    20.7894
_cell_length_b    19.9013
_cell_length_c    28.9472
_cell_angle_alpha 89.9989
_cell_angle_beta  89.9989
_cell_angle_gamma 94.7786
_cell_volume      11934.9

_symmetry_cell_setting          triclinic
_symmetry_space_group_name_Hall 'P 1'
_symmetry_space_group_name_H-M  'P 1'
_symmetry_Int_Tables_number     1

_symmetry_equiv_pos_as_xyz 'x,y,z'

loop_
_atom_site_label
_atom_site_type_symbol
_atom_site_fract_x
_atom_site_fract_y
_atom_site_fract_z
_atom_site_charge
C1       C      0.072420000000     0.898890000000     0.009390000000     0.398063   
C2       C      0.927130000000     0.107630000000     0.021710000000     0.404208   
C3       C      0.107160000000     0.086730000000     0.016460000000     0.40377    
C4       C      0.893070000000     0.921220000000     0.015200000000     0.404746   
C5       C      0.078750000000     0.939400000000     0.522450000000     0.411934   
C6       C      0.876750000000     0.088110000000     0.516790000000     0.405302   
C7       C      0.052220000000     0.126960000000     0.539590000000     0.419092   
C8       C      0.909480000000     0.901000000000     0.500820000000     0.418036   
C9       C      0.501590000000     0.501720000000     0.918200000000     0.483365   
C10      C      0.498450000000     0.510150000000     0.093560000000     0.482287   
C11      C      0.587790000000     0.419740000000     0.006750000000     0.475051   
C12      C      0.412900000000     0.583920000000     0.000650000000     0.479768   
C13      C      0.493310000000     0.502360000000     0.426210000000     0.481889   
C14      C      0.465090000000     0.532660000000     0.599830000000     0.484895   
C15      C      0.563740000000     0.431450000000     0.527890000000     0.471514   
C16      C      0.399040000000     0.603330000000     0.498790000000     0.475048   
C17      C      0.536920000000     0.554210000000     0.844420000000     0.0147518  
C18      C      0.414270000000     0.487860000000     0.670620000000     0.021062   
C19      C      0.498200000000     0.593610000000     0.671810000000     0.114753   
C20      C      0.396350000000     0.505990000000     0.719910000000    -0.111788   
C21      C      0.553800000000     0.530590000000     0.796010000000    -0.10294    
C22      C      0.478300000000     0.602850000000     0.722940000000    -0.129923   
C23      C      0.492600000000     0.500560000000     0.773530000000     0.020721   
C24      C      0.456380000000     0.535540000000     0.743750000000     0.037095   
C25      C      0.447880000000     0.456100000000     0.847530000000     0.0145611  
C26      C      0.467180000000     0.437100000000     0.798390000000    -0.102398   
C27      C      0.460000000000     0.462400000000     0.168650000000     0.0153281  
C28      C      0.562800000000     0.526010000000     0.358480000000     0.0169057  
C29      C      0.460930000000     0.448100000000     0.349780000000     0.114185   
C30      C      0.552720000000     0.556860000000     0.310860000000    -0.10775    
C31      C      0.502270000000     0.437080000000     0.206860000000    -0.101884   
C32      C      0.451340000000     0.478350000000     0.301170000000    -0.127647   
C33      C      0.530350000000     0.496550000000     0.234960000000     0.0174253  
C34      C      0.514610000000     0.506700000000     0.280190000000     0.0283956  
C35      C      0.531260000000     0.571640000000     0.165740000000     0.0172116  
C36      C      0.571380000000     0.547820000000     0.206360000000    -0.102844   
C37      C      0.284530000000     0.628250000000     0.491160000000     0.018113   
C38      C      0.171920000000     0.895270000000     0.484260000000     0.0158545  
C39      C      0.123050000000     0.837600000000     0.556500000000     0.111509   
C40      C      0.234650000000     0.865580000000     0.499210000000    -0.107159   
C41      C      0.249080000000     0.672960000000     0.523960000000    -0.10419    
C42      C      0.154830000000     0.775490000000     0.536860000000    -0.124935   
C43      C      0.266530000000     0.747450000000     0.514130000000     0.0204534  
C44      C      0.221490000000     0.794010000000     0.516950000000     0.026663   
C45      C      0.372970000000     0.719770000000     0.478910000000     0.018877   
C46      C      0.338590000000     0.768050000000     0.509960000000    -0.104545   
C47      C      0.619380000000     0.658900000000     0.557200000000    -0.00184823 
C48      C      0.840580000000     0.825830000000     0.450850000000     0.0134477  
C49      C      0.871180000000     0.786710000000     0.528650000000     0.116047   
C50      C      0.769360000000     0.826410000000     0.464930000000    -0.105287   
C51      C      0.685330000000     0.698300000000     0.554920000000    -0.0892398  
C52      C      0.802570000000     0.791160000000     0.547700000000    -0.129771   
C53      C      0.696700000000     0.743150000000     0.512300000000     0.0146033  
C54      C      0.753480000000     0.783110000000     0.508060000000     0.0276481  
C55      C      0.586680000000     0.693530000000     0.482340000000     0.00088916 
C56      C      0.650140000000     0.734710000000     0.471450000000    -0.0893951  
C57      C      0.589090000000     0.318750000000     0.555980000000     0.0157276  
C58      C      0.815900000000     0.169890000000     0.474450000000     0.0215844  
C59      C      0.780370000000     0.128280000000     0.554690000000     0.110966   
C60      C      0.792500000000     0.238130000000     0.488120000000    -0.108916   
C61      C      0.617320000000     0.262730000000     0.528160000000    -0.0996061  
C62      C      0.717910000000     0.162870000000     0.542360000000    -0.122135   
C63      C      0.688880000000     0.278790000000     0.518050000000     0.0171109  
C64      C      0.731210000000     0.229470000000     0.516790000000     0.0412549  
C65      C      0.677770000000     0.403050000000     0.529540000000     0.0145017  
C66      C      0.707280000000     0.349540000000     0.499830000000    -0.0987763  
C67      C      0.380000000000     0.337800000000     0.542400000000     0.00155078 
C68      C      0.092350000000     0.238670000000     0.512300000000     0.0169212  
C69      C      0.132930000000     0.200970000000     0.587500000000     0.112875   
C70      C      0.158510000000     0.238620000000     0.489640000000    -0.10641    
C71      C      0.318750000000     0.295500000000     0.556650000000    -0.0901191  
C72      C      0.202290000000     0.201290000000     0.568530000000    -0.129468   
C73      C      0.266950000000     0.288660000000     0.519170000000     0.0131376  
C74      C      0.211800000000     0.247090000000     0.526070000000     0.0281883  
C75      C      0.336270000000     0.377850000000     0.472140000000    -0.00209137 
C76      C      0.271550000000     0.336420000000     0.477680000000    -0.0874877  
C77      C      0.129800000000     0.820930000000     0.960390000000     0.010882   
C78      C      0.323930000000     0.631880000000     0.038700000000     0.0151904  
C79      C      0.367460000000     0.682270000000     0.962640000000     0.112465   
C80      C      0.256900000000     0.653210000000     0.027300000000    -0.10653    
C81      C      0.201610000000     0.808550000000     0.960640000000    -0.0990899  
C82      C      0.300800000000     0.709120000000     0.953910000000    -0.12895    
C83      C      0.217670000000     0.764130000000     0.001140000000     0.0140483  
C84      C      0.260730000000     0.715560000000     0.997090000000     0.0307129  
C85      C      0.122740000000     0.802980000000     0.046110000000     0.0101986  
C86      C      0.193950000000     0.787870000000     0.047690000000    -0.0988785  
C87      C      0.814770000000     0.844600000000     0.058170000000     0.0116195  
C88      C      0.589620000000     0.688840000000     0.984250000000    -0.0154864  
C89      C      0.650590000000     0.643230000000     0.047790000000     0.0956981  
C90      C      0.641330000000     0.745120000000     0.973950000000    -0.0895074  
C91      C      0.743040000000     0.851480000000     0.066020000000    -0.101375   
C92      C      0.698670000000     0.706870000000     0.046440000000    -0.118784   
C93      C      0.706850000000     0.828690000000     0.022800000000     0.0183706  
C94      C      0.678010000000     0.764840000000     0.017360000000     0.0228393  
C95      C      0.798530000000     0.868170000000     0.972620000000     0.0107879  
C96      C      0.726270000000     0.873340000000     0.981830000000    -0.101475   
C97      C      0.697420000000     0.393870000000     0.982710000000     0.0173843  
C98      C      0.855620000000     0.173850000000     0.068520000000     0.0205419  
C99      C      0.880040000000     0.203550000000     0.984080000000     0.111234   
C100     C      0.788150000000     0.197350000000     0.060070000000    -0.107765   
C101     C      0.753580000000     0.374320000000     0.012550000000    -0.100619   
C102     C      0.849290000000     0.269830000000     0.996970000000    -0.121945   
C103     C      0.742640000000     0.301540000000     0.028690000000     0.0186316  
C104     C      0.790600000000     0.258220000000     0.028260000000     0.0409117  
C105     C      0.622280000000     0.305120000000     0.020970000000     0.0153882  
C106     C      0.677590000000     0.283690000000     0.051510000000    -0.099247   
C107     C      0.187540000000     0.160090000000     0.060360000000     0.0109339  
C108     C      0.413100000000     0.318420000000     0.983490000000    -0.00630202 
C109     C      0.362440000000     0.358350000000     0.052720000000     0.0969237  
C110     C      0.358880000000     0.264420000000     0.973520000000    -0.0928734  
C111     C      0.259860000000     0.153190000000     0.065110000000    -0.100971   
C112     C      0.309250000000     0.298760000000     0.050820000000    -0.116002   
C113     C      0.293350000000     0.179350000000     0.021500000000     0.0176208  
C114     C      0.324150000000     0.242630000000     0.017670000000     0.0227781  
C115     C      0.198140000000     0.145630000000     0.973450000000     0.0102174  
C116     C      0.270630000000     0.138610000000     0.979460000000    -0.100618   
Cu1      Cu     0.998620000000     0.007560000000     0.973170000000     0.857977   
Cu2      Cu     0.001890000000     0.999910000000     0.058200000000     0.840548   
Cu3      Cu     0.987830000000     0.025210000000     0.478250000000     0.839266   
Cu4      Cu     0.969820000000     0.004860000000     0.561570000000     0.889096   
Cu5      Cu     0.549360000000     0.558530000000     0.003700000000     1.19616    
Cu6      Cu     0.453710000000     0.448310000000     0.008360000000     1.20803    
Cu7      Cu     0.530360000000     0.569100000000     0.512930000000     1.1932     
Cu8      Cu     0.431360000000     0.464560000000     0.513800000000     1.19073    
H1       H      0.580390000000     0.571470000000     0.776180000000     0.051684   
H2       H      0.439390000000     0.440620000000     0.671480000000     0.0302197  
H3       H      0.402870000000     0.482530000000     0.845740000000     0.0448256  
H4       H      0.426820000000     0.407570000000     0.781080000000     0.0473554  
H5       H      0.371080000000     0.461960000000     0.737230000000     0.0509397  
H6       H      0.517180000000     0.631630000000     0.742370000000     0.0710359  
H7       H      0.582720000000     0.571060000000     0.862400000000     0.0449848  
H8       H      0.368720000000     0.476020000000     0.650960000000     0.0397212  
H9       H      0.506150000000     0.402170000000     0.800700000000     0.0544475  
H10      H      0.437270000000     0.635190000000     0.724880000000     0.082472   
H11      H      0.436360000000     0.408770000000     0.867370000000     0.0385824  
H12      H      0.547870000000     0.576480000000     0.672270000000     0.0241146  
H13      H      0.588390000000     0.491100000000     0.799310000000     0.0568725  
H14      H      0.360180000000     0.544130000000     0.718530000000     0.0622284  
H15      H      0.508450000000     0.598890000000     0.841320000000     0.049351   
H16      H      0.475910000000     0.396520000000     0.227200000000     0.0499404  
H17      H      0.596380000000     0.485660000000     0.354590000000     0.0273433  
H18      H      0.494350000000     0.603510000000     0.179790000000     0.0289156  
H19      H      0.589540000000     0.593430000000     0.225770000000     0.045452   
H20      H      0.601740000000     0.571280000000     0.297160000000     0.0456928  
H21      H      0.423600000000     0.440790000000     0.279330000000     0.0719645  
H22      H      0.440780000000     0.418300000000     0.147910000000     0.0512316  
H23      H      0.587950000000     0.565780000000     0.380440000000     0.0374613  
H24      H      0.613920000000     0.523860000000     0.192710000000     0.0598633  
H25      H      0.420660000000     0.521320000000     0.303870000000     0.0778137  
H26      H      0.563430000000     0.604160000000     0.142900000000     0.0413044  
H27      H      0.487680000000     0.402370000000     0.344920000000     0.0220553  
H28      H      0.542790000000     0.412700000000     0.190500000000     0.0565581  
H29      H      0.526580000000     0.603090000000     0.314390000000     0.0544465  
H30      H      0.418260000000     0.485200000000     0.184600000000     0.0396558  
H31      H      0.196760000000     0.658430000000     0.519290000000     0.0514957  
H32      H      0.183880000000     0.948040000000     0.472390000000     0.0350708  
H33      H      0.358410000000     0.728390000000     0.442560000000     0.0284444  
H34      H      0.349660000000     0.819920000000     0.496710000000     0.0470125  
H35      H      0.258790000000     0.897520000000     0.526670000000     0.0569681  
H36      H      0.158460000000     0.739000000000     0.565610000000     0.0736427  
H37      H      0.273490000000     0.574740000000     0.501500000000     0.042305   
H38      H      0.150840000000     0.866320000000     0.454230000000     0.037185   
H39      H      0.359890000000     0.766900000000     0.545140000000     0.0644641  
H40      H      0.124130000000     0.750970000000     0.509190000000     0.0769964  
H41      H      0.425920000000     0.732620000000     0.481220000000     0.0369008  
H42      H      0.152420000000     0.857090000000     0.586550000000     0.0341083  
H43      H      0.262110000000     0.661960000000     0.560270000000     0.0622021  
H44      H      0.266290000000     0.866790000000     0.468250000000     0.0472184  
H45      H      0.265280000000     0.634120000000     0.455650000000     0.0331768  
H46      H      0.690230000000     0.729430000000     0.586820000000     0.0535661  
H47      H      0.848400000000     0.775420000000     0.436280000000     0.0315884  
H48      H      0.552550000000     0.725770000000     0.499600000000     0.0335515  
H49      H      0.637930000000     0.784900000000     0.458930000000     0.0425007  
H50      H      0.740580000000     0.810110000000     0.434120000000     0.0448759  
H51      H      0.794660000000     0.752040000000     0.574640000000     0.0732909  
H52      H      0.623310000000     0.614560000000     0.579990000000     0.0387091  
H53      H      0.851870000000     0.864240000000     0.423480000000     0.0371134  
H54      H      0.674370000000     0.708780000000     0.443090000000     0.0481007  
H55      H      0.798730000000     0.840950000000     0.564420000000     0.0810286  
H56      H      0.563960000000     0.675360000000     0.449450000000     0.0313828  
H57      H      0.871520000000     0.735560000000     0.512770000000     0.0283155  
H58      H      0.722560000000     0.661230000000     0.555290000000     0.0538921  
H59      H      0.758890000000     0.879070000000     0.472810000000     0.0544071  
H60      H      0.583210000000     0.690470000000     0.572640000000     0.048631   
H61      H      0.606270000000     0.214630000000     0.546860000000     0.0467783  
H62      H      0.779160000000     0.142500000000     0.451900000000     0.0277593  
H63      H      0.701850000000     0.404840000000     0.563900000000     0.0371645  
H64      H      0.760370000000     0.361930000000     0.499970000000     0.049517   
H65      H      0.783690000000     0.265580000000     0.455560000000     0.0468783  
H66      H      0.686870000000     0.128280000000     0.519980000000     0.0545391  
H67      H      0.535840000000     0.308020000000     0.558200000000     0.0351331  
H68      H      0.860790000000     0.179450000000     0.453730000000     0.0366242  
H69      H      0.689840000000     0.352990000000     0.463680000000     0.0514462  
H70      H      0.691080000000     0.170240000000     0.574870000000     0.0737789  
H71      H      0.688180000000     0.453090000000     0.512850000000     0.0396197  
H72      H      0.764600000000     0.074610000000     0.562700000000     0.0294621  
H73      H      0.591530000000     0.257530000000     0.494550000000     0.0531263  
H74      H      0.830970000000     0.267840000000     0.507750000000     0.0706357  
H75      H      0.608350000000     0.317250000000     0.591780000000     0.0335147  
H76      H      0.333130000000     0.244920000000     0.566620000000     0.0445992  
H77      H      0.087780000000     0.289310000000     0.527700000000     0.0328671  
H78      H      0.370580000000     0.348980000000     0.452210000000     0.043889   
H79      H      0.262960000000     0.307320000000     0.445170000000     0.0507719  
H80      H      0.160520000000     0.278660000000     0.463030000000     0.0488109  
H81      H      0.235140000000     0.216320000000     0.597540000000     0.0628397  
H82      H      0.407270000000     0.353820000000     0.574060000000     0.0319622  
H83      H      0.053870000000     0.230760000000     0.485650000000     0.0382083  
H84      H      0.233450000000     0.372160000000     0.481350000000     0.0523092  
H85      H      0.212320000000     0.149510000000     0.557930000000     0.0738304  
H86      H      0.328090000000     0.424170000000     0.452470000000     0.050557   
H87      H      0.127940000000     0.253290000000     0.599990000000     0.0266321  
H88      H      0.298330000000     0.319590000000     0.587430000000     0.0518923  
H89      H      0.162270000000     0.189910000000     0.471460000000     0.0615297  
H90      H      0.411480000000     0.307220000000     0.521220000000     0.0304101  
H91      H      0.211080000000     0.785080000000     0.926800000000     0.0489501  
H92      H      0.348100000000     0.670090000000     0.062400000000     0.0283761  
H93      H      0.092730000000     0.754210000000     0.043380000000     0.0323804  
H94      H      0.200210000000     0.752730000000     0.076540000000     0.0455291  
H95      H      0.230620000000     0.658290000000     0.060090000000     0.0504543  
H96      H      0.311000000000     0.758820000000     0.936750000000     0.0603741  
H97      H      0.121460000000     0.856900000000     0.932060000000     0.0428185  
H98      H      0.318420000000     0.583450000000     0.058110000000     0.0511294  
H99      H      0.223380000000     0.835230000000     0.056750000000     0.0530545  
H100     H      0.272170000000     0.675260000000     0.929560000000     0.0748434  
H101     H      0.110180000000     0.826740000000     0.079300000000     0.0388656  
H102     H      0.399640000000     0.725150000000     0.976580000000     0.0247258  
H103     H      0.231370000000     0.857490000000     0.962950000000     0.0536898  
H104     H      0.229870000000     0.611550000000     0.008040000000     0.0660029  
H105     H      0.101280000000     0.772550000000     0.952290000000     0.0352885  
H106     H      0.725290000000     0.825110000000     0.097800000000     0.0445329  
H107     H      0.553300000000     0.706870000000     0.008570000000     0.0373256  
H108     H      0.805330000000     0.816540000000     0.959830000000     0.0354553  
H109     H      0.698990000000     0.860810000000     0.949690000000     0.0500826  
H110     H      0.615820000000     0.787890000000     0.960380000000     0.0478135  
H111     H      0.708110000000     0.721300000000     0.082870000000     0.0546934  
H112     H      0.841490000000     0.863440000000     0.089450000000     0.0392899  
H113     H      0.565380000000     0.674850000000     0.951210000000     0.0528807  
H114     H      0.718220000000     0.926500000000     0.990270000000     0.0585694  
H115     H      0.745370000000     0.693480000000     0.031720000000     0.0719767  
H116     H      0.813970000000     0.904200000000     0.944630000000     0.0468592  
H117     H      0.614030000000     0.652230000000     0.074640000000     0.0193464  
H118     H      0.736160000000     0.905570000000     0.072260000000     0.054128   
H119     H      0.675090000000     0.728710000000     0.947200000000     0.0569177  
H120     H      0.822850000000     0.790350000000     0.054580000000     0.0311658  
H121     H      0.799100000000     0.385860000000     0.993200000000     0.0518799  
H122     H      0.885530000000     0.213980000000     0.087300000000     0.0302169  
H123     H      0.618200000000     0.271830000000     0.990050000000     0.03474    
H124     H      0.668290000000     0.228710000000     0.057790000000     0.0469873  
H125     H      0.768120000000     0.210220000000     0.094260000000     0.0464802  
H126     H      0.885950000000     0.304000000000     0.015220000000     0.0574232  
H127     H      0.704680000000     0.448390000000     0.974230000000     0.0536903  
H128     H      0.850630000000     0.128680000000     0.091280000000     0.0360165  
H129     H      0.676590000000     0.309890000000     0.085380000000     0.0539535  
H130     H      0.836590000000     0.295010000000     0.964390000000     0.0746924  
H131     H      0.576370000000     0.297110000000     0.040690000000     0.0363126  
H132     H      0.929310000000     0.219210000000     0.970650000000     0.0311309  
H133     H      0.756810000000     0.407240000000     0.043630000000     0.0664525  
H134     H      0.756410000000     0.155340000000     0.044980000000     0.0673578  
H135     H      0.698580000000     0.365790000000     0.949530000000     0.0354746  
H136     H      0.279440000000     0.176910000000     0.097290000000     0.0468745  
H137     H      0.450460000000     0.296670000000     0.005130000000     0.0334867  
H138     H      0.191120000000     0.198770000000     0.964160000000     0.0359033  
H139     H      0.295630000000     0.153590000000     0.946840000000     0.046805   
H140     H      0.381940000000     0.221700000000     0.957510000000     0.0443161  
H141     H      0.302340000000     0.280570000000     0.086680000000     0.0643648  
H142     H      0.162730000000     0.138070000000     0.091530000000     0.0403046  
H143     H      0.435890000000     0.334850000000     0.950270000000     0.0324141  
H144     H      0.278440000000     0.084630000000     0.985200000000     0.0532277  
H145     H      0.262750000000     0.316900000000     0.039320000000     0.0779953  
H146     H      0.180520000000     0.113300000000     0.944010000000     0.0427358  
H147     H      0.402780000000     0.342180000000     0.074320000000     0.0205984  
H148     H      0.267280000000     0.098750000000     0.068900000000     0.0535327  
H149     H      0.324080000000     0.283850000000     0.948680000000     0.0558073  
H150     H      0.179290000000     0.214570000000     0.059620000000     0.0335574  
N1       N      0.456450000000     0.540910000000     0.646480000000    -0.19119    
N2       N      0.498530000000     0.500950000000     0.870940000000    -0.181821   
N3       N      0.501210000000     0.658290000000     0.646560000000    -0.0274558  
N4       N      0.501930000000     0.495760000000     0.379290000000    -0.19182    
N5       N      0.497700000000     0.514050000000     0.140790000000    -0.184621   
N6       N      0.398200000000     0.427030000000     0.371460000000    -0.0276802  
N7       N      0.123860000000     0.892940000000     0.521890000000    -0.177301   
N8       N      0.354210000000     0.648890000000     0.491130000000    -0.184611   
N9       N      0.056840000000     0.817620000000     0.573260000000    -0.0237702  
N10      N      0.880670000000     0.838170000000     0.492100000000    -0.180121   
N11      N      0.599220000000     0.635900000000     0.511230000000    -0.234346   
N12      N      0.923170000000     0.795290000000     0.563970000000    -0.0228827  
N13      N      0.826260000000     0.128320000000     0.515570000000    -0.178411   
N14      N      0.608120000000     0.385620000000     0.536000000000    -0.186177   
N15      N      0.813590000000     0.156960000000     0.596200000000    -0.0213805  
N16      N      0.086740000000     0.187030000000     0.548750000000    -0.175957   
N17      N      0.363050000000     0.397260000000     0.517110000000    -0.233627   
N18      N      0.124440000000     0.156280000000     0.628110000000    -0.0340296  
N19      N      0.364840000000     0.626740000000     0.997370000000    -0.18402    
N20      N      0.109330000000     0.845020000000     0.005790000000    -0.17199    
N21      N      0.391590000000     0.662320000000     0.916960000000    -0.0346704  
N22      N      0.617200000000     0.629270000000     0.002990000000    -0.225079   
N23      N      0.836900000000     0.880350000000     0.015420000000    -0.173171   
N24      N      0.688420000000     0.587090000000     0.061990000000    -0.0376058  
N25      N      0.887810000000     0.159520000000     0.024600000000    -0.178322   
N26      N      0.635010000000     0.375650000000     0.005610000000    -0.183484   
N27      N      0.845150000000     0.164940000000     0.946910000000    -0.0229653  
N28      N      0.388060000000     0.376400000000     0.006510000000    -0.23313    
N29      N      0.162810000000     0.128410000000     0.016880000000    -0.173506   
N30      N      0.338220000000     0.418350000000     0.074420000000    -0.0311136  
O1       O      0.052210000000     0.926530000000     0.972620000000    -0.394849   
O2       O      0.946000000000     0.088420000000     0.981950000000    -0.382664   
O3       O      0.081130000000     0.068640000000     0.977780000000    -0.398242   
O4       O      0.916030000000     0.945560000000     0.976970000000    -0.39402    
O5       O      0.922110000000     0.935410000000     0.053450000000    -0.40219    
O6       O      0.081600000000     0.065700000000     0.054710000000    -0.400704   
O7       O      0.944460000000     0.078170000000     0.058640000000    -0.396166   
O8       O      0.057810000000     0.921250000000     0.049350000000    -0.394702   
O9       O      0.065230000000     0.969430000000     0.484800000000    -0.395087   
O10      O      0.909150000000     0.079180000000     0.479850000000    -0.399167   
O11      O      0.042040000000     0.109530000000     0.497360000000    -0.404301   
O12      O      0.931350000000     0.938370000000     0.467310000000    -0.399167   
O13      O      0.916340000000     0.920800000000     0.542750000000    -0.389837   
O14      O      0.027320000000     0.090580000000     0.572460000000    -0.370086   
O15      O      0.892020000000     0.060470000000     0.554950000000    -0.382082   
O16      O      0.047540000000     0.949430000000     0.559740000000    -0.373731   
O17      O      0.539870000000     0.545180000000     0.938450000000    -0.468277   
O18      O      0.530290000000     0.555250000000     0.069830000000    -0.47577    
O19      O      0.602430000000     0.482490000000     0.001260000000    -0.457862   
O20      O      0.471400000000     0.605620000000     0.993680000000    -0.456665   
O21      O      0.398650000000     0.522580000000     0.011560000000    -0.455831   
O22      O      0.529280000000     0.397790000000     0.012470000000    -0.483231   
O23      O      0.467270000000     0.461170000000     0.073470000000    -0.475463   
O24      O      0.464740000000     0.460420000000     0.941760000000    -0.479121   
O25      O      0.528110000000     0.547020000000     0.448190000000    -0.48587    
O26      O      0.507610000000     0.569800000000     0.578120000000    -0.473649   
O27      O      0.582210000000     0.493450000000     0.522330000000    -0.477882   
O28      O      0.458650000000     0.623230000000     0.501270000000    -0.475109   
O29      O      0.380910000000     0.541000000000     0.503370000000    -0.472331   
O30      O      0.504030000000     0.412000000000     0.526200000000    -0.482675   
O31      O      0.430880000000     0.487070000000     0.578360000000    -0.484325   
O32      O      0.452010000000     0.463660000000     0.448030000000    -0.465502   
O33      O      0.540970000000     0.703790000000     0.668310000000    -0.119607   
O34      O      0.442940000000     0.681500000000     0.645440000000    -0.110845   
O35      O      0.368090000000     0.377300000000     0.346880000000    -0.124581   
O36      O      0.360750000000     0.478230000000     0.371840000000    -0.115776   
O37      O      0.060490000000     0.769970000000     0.605590000000    -0.0972078  
O38      O      0.019280000000     0.793570000000     0.536800000000    -0.0748153  
O39      O      0.970150000000     0.754070000000     0.553620000000    -0.0606664  
O40      O      0.901050000000     0.777200000000     0.605740000000    -0.100859   
O41      O      0.775880000000     0.144880000000     0.632980000000    -0.106542   
O42      O      0.824820000000     0.223520000000     0.592110000000    -0.104138   
O43      O      0.065290000000     0.158500000000     0.645370000000    -0.0862164  
O44      O      0.133630000000     0.092680000000     0.617370000000    -0.0996681  
O45      O      0.455690000000     0.669840000000     0.915700000000    -0.109859   
O46      O      0.372710000000     0.598130000000     0.907620000000    -0.109832   
O47      O      0.650860000000     0.538020000000     0.081780000000    -0.117987   
O48      O      0.716480000000     0.561400000000     0.025380000000    -0.111296   
O49      O      0.849120000000     0.200780000000     0.908000000000    -0.108307   
O50      O      0.782900000000     0.153410000000     0.957470000000    -0.110354   
O51      O      0.316560000000     0.402800000000     0.116720000000    -0.122164   
O52      O      0.288980000000     0.438580000000     0.050060000000    -0.107177   


