data_structure

_audit_creation_method RASPA-1.0
_audit_creation_date 2023-5-25
_audit_author_name 'Poobodin Mano'

_cell_length_a    29.764
_cell_length_b    29.3609
_cell_length_c    29.4585
_cell_angle_alpha 89.9998
_cell_angle_beta  89.9998
_cell_angle_gamma 89.9998
_cell_volume      25743.7

_symmetry_cell_setting          triclinic
_symmetry_space_group_name_Hall 'P 1'
_symmetry_space_group_name_H-M  'P 1'
_symmetry_Int_Tables_number     1

_symmetry_equiv_pos_as_xyz 'x,y,z'

loop_
_atom_site_label
_atom_site_type_symbol
_atom_site_fract_x
_atom_site_fract_y
_atom_site_fract_z
_atom_site_charge
C1       C      0.980360000000     0.094750000000     0.487740000000     0.401546   
C2       C      0.980680000000     0.914140000000     0.470930000000     0.403607   
C3       C      0.070730000000     0.005310000000     0.486170000000     0.400812   
C4       C      0.892130000000     0.004420000000     0.471240000000     0.402528   
C5       C      0.007240000000     0.497680000000     0.448220000000     0.403777   
C6       C      0.022670000000     0.513830000000     0.627400000000     0.403788   
C7       C      0.017980000000     0.415610000000     0.545620000000     0.404152   
C8       C      0.012300000000     0.596160000000     0.528620000000     0.401578   
C9       C      0.491530000000     0.059330000000     0.590260000000     0.402274   
C10      C      0.474420000000     0.034790000000     0.412030000000     0.401518   
C11      C      0.571180000000     0.043300000000     0.493580000000     0.40033    
C12      C      0.393030000000     0.049990000000     0.510800000000     0.400385   
C13      C      0.502340000000     0.995320000000     0.088190000000     0.401188   
C14      C      0.495090000000     0.033300000000     0.911510000000     0.403727   
C15      C      0.506260000000     0.103320000000     0.017520000000     0.403493   
C16      C      0.491150000000     0.926670000000     0.980310000000     0.404203   
C17      C      0.031040000000     0.472070000000     0.130130000000     0.404934   
C18      C      0.039800000000     0.506570000000     0.953220000000     0.401304   
C19      C      0.123470000000     0.488010000000     0.046730000000     0.403948   
C20      C      0.945070000000     0.489020000000     0.037940000000     0.403992   
C21      C      0.527060000000     0.429770000000     0.029930000000     0.40158    
C22      C      0.536540000000     0.609490000000     0.009850000000     0.402911   
C23      C      0.443740000000     0.524700000000     0.019660000000     0.402827   
C24      C      0.622140000000     0.515280000000     0.018510000000     0.402222   
C25      C      0.694830000000     0.536570000000     0.053360000000     0.0123224  
C26      C      0.874820000000     0.449280000000     0.017880000000     0.0132485  
C27      C      0.873390000000     0.522420000000     0.064290000000     0.0327656  
C28      C      0.833470000000     0.464890000000     0.991140000000    -0.103423   
C29      C      0.734810000000     0.506960000000     0.066880000000    -0.10249    
C30      C      0.830680000000     0.537020000000     0.039100000000    -0.105641   
C31      C      0.760180000000     0.491130000000     0.025160000000     0.0203152  
C32      C      0.805420000000     0.496370000000     0.020240000000     0.0238323  
C33      C      0.692040000000     0.497650000000     0.976820000000     0.0122344  
C34      C      0.731520000000     0.466940000000     0.990210000000    -0.102606   
C35      C      0.861690000000     0.503170000000     0.108910000000     0.0397287  
C36      C      0.372000000000     0.513550000000     0.979060000000     0.0127576  
C37      C      0.193390000000     0.522720000000     0.075980000000     0.013893   
C38      C      0.195110000000     0.448330000000     0.032030000000     0.0340381  
C39      C      0.233930000000     0.540090000000     0.049440000000    -0.102643   
C40      C      0.334610000000     0.480610000000     0.993060000000    -0.102118   
C41      C      0.235330000000     0.465630000000     0.004120000000    -0.106841   
C42      C      0.307200000000     0.501810000000     0.030870000000     0.0198716  
C43      C      0.261520000000     0.500940000000     0.030760000000     0.0242325  
C44      C      0.373000000000     0.548410000000     0.057220000000     0.0129579  
C45      C      0.333930000000     0.517940000000     0.071720000000    -0.101859   
C46      C      0.210400000000     0.418950000000     0.069540000000     0.0435083  
C47      C      0.551960000000     0.678640000000     0.963710000000     0.0126527  
C48      C      0.446740000000     0.855780000000     0.982090000000     0.0143266  
C49      C      0.521570000000     0.858420000000     0.941500000000     0.0336522  
C50      C      0.460600000000     0.812740000000     0.007690000000    -0.103011   
C51      C      0.515500000000     0.710200000000     0.944900000000    -0.101992   
C52      C      0.534860000000     0.812600000000     0.962810000000    -0.105072   
C53      C      0.495770000000     0.739580000000     0.982340000000     0.0190085  
C54      C      0.494670000000     0.785880000000     0.980360000000     0.0239256  
C55      C      0.518160000000     0.684910000000     0.041900000000     0.011955   
C56      C      0.479210000000     0.713630000000     0.023520000000    -0.102078   
C57      C      0.504260000000     0.851160000000     0.895230000000     0.0382083  
C58      C      0.491070000000     0.358710000000     0.004870000000     0.0126607  
C59      C      0.553120000000     0.169170000000     0.038640000000     0.013778   
C60      C      0.474560000000     0.179620000000     0.005080000000     0.0327564  
C61      C      0.545910000000     0.210870000000     0.069220000000    -0.104261   
C62      C      0.509480000000     0.311450000000     0.994140000000    -0.102724   
C63      C      0.469060000000     0.222830000000     0.033710000000    -0.106389   
C64      C      0.524820000000     0.287490000000     0.036960000000     0.0208856  
C65      C      0.514080000000     0.243310000000     0.045850000000     0.0244588  
C66      C      0.536940000000     0.361090000000     0.077180000000     0.0126203  
C67      C      0.557220000000     0.314270000000     0.066180000000    -0.10272    
C68      C      0.485730000000     0.191680000000     0.957890000000     0.0391439  
C69      C      0.453250000000     0.062580000000     0.845080000000     0.0133614  
C70      C      0.524870000000     0.032940000000     0.662200000000     0.0137722  
C71      C      0.483460000000     0.108620000000     0.657820000000     0.0334101  
C72      C      0.502910000000     0.022780000000     0.707810000000    -0.102826   
C73      C      0.466800000000     0.097020000000     0.808130000000    -0.10446    
C74      C      0.460920000000     0.098650000000     0.703980000000    -0.106682   
C75      C      0.499640000000     0.074410000000     0.776070000000     0.0231984  
C76      C      0.489710000000     0.066450000000     0.731690000000     0.0245482  
C77      C      0.527910000000     0.021790000000     0.835580000000     0.0126053  
C78      C      0.541210000000     0.055810000000     0.798910000000    -0.102776   
C79      C      0.522400000000     0.139030000000     0.663820000000     0.0451078  
C80      C      0.545820000000     0.992510000000     0.159600000000     0.0132737  
C81      C      0.449230000000     0.989800000000     0.345390000000     0.0127187  
C82      C      0.490540000000     0.064900000000     0.335650000000     0.0340125  
C83      C      0.475590000000     0.969530000000     0.305430000000    -0.10205    
C84      C      0.535200000000     0.021600000000     0.201320000000    -0.101417   
C85      C      0.520260000000     0.043640000000     0.298660000000    -0.106652   
C86      C      0.497270000000     0.000490000000     0.228610000000     0.0189072  
C87      C      0.495000000000     0.005990000000     0.274540000000     0.0243092  
C88      C      0.466940000000     0.962660000000     0.157170000000     0.0127664  
C89      C      0.455610000000     0.986960000000     0.201820000000    -0.101018   
C90      C      0.453200000000     0.090820000000     0.315310000000     0.0434074  
C91      C      0.071880000000     0.485910000000     0.878790000000     0.0128877  
C92      C      0.988120000000     0.532770000000     0.701010000000     0.0134623  
C93      C      0.064880000000     0.494140000000     0.696750000000     0.0322664  
C94      C      0.004060000000     0.561470000000     0.741400000000    -0.103755   
C95      C      0.050420000000     0.480040000000     0.832030000000    -0.102785   
C96      C      0.079270000000     0.520680000000     0.739190000000    -0.105548   
C97      C      0.035170000000     0.525300000000     0.812460000000     0.0205342  
C98      C      0.039110000000     0.534890000000     0.767370000000     0.0234744  
C99      C      0.031150000000     0.560480000000     0.889530000000     0.0129487  
C100     C      0.007040000000     0.554450000000     0.843950000000    -0.102616   
C101     C      0.052450000000     0.447240000000     0.709220000000     0.0422177  
C102     C      0.055550000000     0.496300000000     0.205990000000     0.0162436  
C103     C      0.962920000000     0.475920000000     0.380290000000     0.0119987  
C104     C      0.038880000000     0.515460000000     0.373080000000     0.0337942  
C105     C      0.974990000000     0.444080000000     0.340460000000    -0.102792   
C106     C      0.022340000000     0.514860000000     0.240340000000    -0.10488    
C107     C      0.050850000000     0.483590000000     0.333970000000    -0.105875   
C108     C      0.001140000000     0.475290000000     0.265200000000     0.0236102  
C109     C      0.008910000000     0.467250000000     0.310010000000     0.0236234  
C110     C      0.009050000000     0.425000000000     0.196670000000     0.0121966  
C111     C      0.977070000000     0.441250000000     0.234870000000    -0.104198   
C112     C      0.023140000000     0.559760000000     0.355870000000     0.0379709  
C113     C      0.320830000000     0.090490000000     0.500340000000     0.0126967  
C114     C      0.140590000000     0.989490000000     0.529610000000     0.0125109  
C115     C      0.143670000000     0.022370000000     0.449930000000     0.0332595  
C116     C      0.179090000000     0.021040000000     0.544100000000    -0.102312   
C117     C      0.278680000000     0.073030000000     0.476020000000    -0.101579   
C118     C      0.180280000000     0.056130000000     0.464890000000    -0.106469   
C119     C      0.253040000000     0.039540000000     0.505630000000     0.0195613  
C120     C      0.207220000000     0.036520000000     0.503900000000     0.0238983  
C121     C      0.324560000000     0.019520000000     0.547700000000     0.012307   
C122     C      0.281170000000     0.001590000000     0.526280000000    -0.101395   
C123     C      0.163800000000     0.982600000000     0.427160000000     0.0437136  
C124     C      0.641620000000     0.003780000000     0.513620000000     0.0125092  
C125     C      0.824300000000     0.022320000000     0.426110000000     0.0127307  
C126     C      0.818330000000     0.979830000000     0.501030000000     0.0333365  
C127     C      0.783710000000     0.052050000000     0.438840000000    -0.102951   
C128     C      0.679410000000     0.986450000000     0.483290000000    -0.102412   
C129     C      0.776710000000     0.007980000000     0.513290000000    -0.105698   
C130     C      0.707870000000     0.025820000000     0.466790000000     0.0202057  
C131     C      0.753440000000     0.026520000000     0.471360000000     0.0240482  
C132     C      0.643470000000     0.079950000000     0.473470000000     0.0113026  
C133     C      0.681910000000     0.063100000000     0.442770000000    -0.102113   
C134     C      0.804690000000     0.935150000000     0.482960000000     0.0398441  
C135     C      0.049810000000     0.667530000000     0.504210000000     0.0126856  
C136     C      0.949330000000     0.841820000000     0.498990000000     0.0139654  
C137     C      0.999140000000     0.843290000000     0.429130000000     0.0331197  
C138     C      0.975080000000     0.801360000000     0.518050000000    -0.101965   
C139     C      0.035210000000     0.699000000000     0.465040000000    -0.10445    
C140     C      0.024820000000     0.801060000000     0.447020000000    -0.105874   
C141     C      0.995550000000     0.727470000000     0.480310000000     0.0228665  
C142     C      0.996210000000     0.773890000000     0.480090000000     0.0240212  
C143     C      0.971240000000     0.669120000000     0.536650000000     0.0135842  
C144     C      0.956090000000     0.700160000000     0.498040000000    -0.103295   
C145     C      0.964900000000     0.829570000000     0.395710000000     0.0477167  
C146     C      0.957070000000     0.162770000000     0.531480000000     0.012847   
C147     C      0.058290000000     0.343580000000     0.530380000000     0.0128814  
C148     C      0.983780000000     0.343070000000     0.571820000000     0.0327735  
C149     C      0.042000000000     0.306290000000     0.497920000000    -0.102349   
C150     C      0.987000000000     0.199740000000     0.551840000000    -0.102194   
C151     C      0.967650000000     0.303550000000     0.541830000000    -0.104829   
C152     C      0.004810000000     0.231260000000     0.515180000000     0.0194632  
C153     C      0.006530000000     0.277310000000     0.520900000000     0.0230485  
C154     C      0.995740000000     0.171150000000     0.455840000000     0.0121412  
C155     C      0.027260000000     0.207560000000     0.475440000000    -0.101991   
C156     C      0.000610000000     0.325390000000     0.615390000000     0.0437814  
Cu1      Cu     0.977520000000     0.000230000000     0.520580000000     0.840602   
Cu2      Cu     0.985160000000     0.008720000000     0.437510000000     0.846302   
Cu3      Cu     0.056210000000     0.506880000000     0.533730000000     0.849231   
Cu4      Cu     0.973730000000     0.504910000000     0.541780000000     0.83962    
Cu5      Cu     0.481120000000     0.005220000000     0.507440000000     0.837847   
Cu6      Cu     0.483000000000     0.088320000000     0.495230000000     0.84617    
Cu7      Cu     0.540050000000     0.011690000000     0.997480000000     0.845686   
Cu8      Cu     0.457370000000     0.017830000000     0.002280000000     0.843837   
Cu9      Cu     0.034460000000     0.447680000000     0.033420000000     0.843581   
Cu10     Cu     0.034230000000     0.530110000000     0.049850000000     0.85012    
Cu11     Cu     0.533450000000     0.524470000000     0.061140000000     0.844157   
Cu12     Cu     0.532300000000     0.514640000000     0.977930000000     0.846025   
H1       H      0.755770000000     0.525020000000     0.092190000000     0.05069    
H2       H      0.863740000000     0.426200000000     0.045670000000     0.0355323  
H3       H      0.705250000000     0.527360000000     0.957540000000     0.0305295  
H4       H      0.750020000000     0.459080000000     0.958470000000     0.0450039  
H5       H      0.815120000000     0.433550000000     0.981160000000     0.0457602  
H6       H      0.810130000000     0.560040000000     0.060500000000     0.0491036  
H7       H      0.674650000000     0.544240000000     0.084170000000     0.038503   
H8       H      0.896480000000     0.429080000000     0.994620000000     0.0379024  
H9       H      0.718720000000     0.434500000000     0.004740000000     0.0528135  
H10      H      0.841020000000     0.558300000000     0.009670000000     0.0533763  
H11      H      0.669700000000     0.478050000000     0.953710000000     0.0377312  
H12      H      0.721820000000     0.476250000000     0.084640000000     0.0566866  
H13      H      0.844120000000     0.483080000000     0.959840000000     0.0519737  
H14      H      0.893530000000     0.553620000000     0.070800000000     0.0371888  
H15      H      0.707890000000     0.569510000000     0.040160000000     0.0289669  
H16      H      0.314180000000     0.473790000000     0.962240000000     0.0448813  
H17      H      0.205670000000     0.507880000000     0.108430000000     0.0330397  
H18      H      0.358910000000     0.581550000000     0.045700000000     0.0268745  
H19      H      0.313620000000     0.535720000000     0.097740000000     0.0461867  
H20      H      0.253180000000     0.564080000000     0.070930000000     0.0452206  
H21      H      0.256340000000     0.435750000000     0.994700000000     0.0496941  
H22      H      0.393160000000     0.496540000000     0.952980000000     0.0369927  
H23      H      0.171500000000     0.552040000000     0.084940000000     0.0367502  
H24      H      0.347980000000     0.487330000000     0.088810000000     0.0570897  
H25      H      0.222950000000     0.481460000000     0.972200000000     0.0521176  
H26      H      0.394730000000     0.555430000000     0.087100000000     0.0363099  
H27      H      0.349370000000     0.447960000000     0.005000000000     0.0538025  
H28      H      0.221530000000     0.560410000000     0.020160000000     0.0537473  
H29      H      0.174280000000     0.426900000000     0.009070000000     0.0355842  
H30      H      0.356530000000     0.544180000000     0.963220000000     0.0297249  
H31      H      0.528580000000     0.729880000000     0.915660000000     0.0487157  
H32      H      0.427850000000     0.845810000000     0.951060000000     0.0357089  
H33      H      0.545170000000     0.708120000000     0.054050000000     0.0299532  
H34      H      0.467480000000     0.736010000000     0.051460000000     0.0442594  
H35      H      0.429570000000     0.792490000000     0.013600000000     0.0454156  
H36      H      0.556310000000     0.793290000000     0.938800000000     0.0492658  
H37      H      0.562360000000     0.654070000000     0.936990000000     0.037012   
H38      H      0.423680000000     0.875780000000     0.004110000000     0.036475   
H39      H      0.450900000000     0.691070000000     0.013510000000     0.0529086  
H40      H      0.556700000000     0.819860000000     0.992570000000     0.0543456  
H41      H      0.505840000000     0.665090000000     0.071540000000     0.0373706  
H42      H      0.487980000000     0.688690000000     0.931060000000     0.056053   
H43      H      0.475380000000     0.822120000000     0.041060000000     0.0519206  
H44      H      0.552520000000     0.879340000000     0.938060000000     0.0357342  
H45      H      0.581760000000     0.699800000000     0.972290000000     0.0280205  
H46      H      0.484260000000     0.292180000000     0.974260000000     0.0522503  
H47      H      0.572810000000     0.179670000000     0.008290000000     0.0363206  
H48      H      0.507850000000     0.356340000000     0.100430000000     0.0321976  
H49      H      0.564050000000     0.297090000000     0.099060000000     0.045171   
H50      H      0.579390000000     0.226170000000     0.075800000000     0.0454483  
H51      H      0.445520000000     0.247180000000     0.017400000000     0.0494458  
H52      H      0.484880000000     0.377150000000     0.972500000000     0.0376856  
H53      H      0.573580000000     0.143810000000     0.057640000000     0.0350644  
H54      H      0.589540000000     0.318590000000     0.047770000000     0.0526419  
H55      H      0.452380000000     0.213050000000     0.066040000000     0.0549689  
H56      H      0.562630000000     0.381740000000     0.095330000000     0.0358523  
H57      H      0.539170000000     0.315340000000     0.971580000000     0.058213   
H58      H      0.531310000000     0.200030000000     0.102230000000     0.0524651  
H59      H      0.441400000000     0.162210000000     0.004170000000     0.0370205  
H60      H      0.458000000000     0.354570000000     0.021960000000     0.0287479  
H61      H      0.435660000000     0.108800000000     0.791060000000     0.0473264  
H62      H      0.558620000000     0.047830000000     0.668710000000     0.0330408  
H63      H      0.513940000000     0.990940000000     0.818820000000     0.0311723  
H64      H      0.565630000000     0.040500000000     0.774900000000     0.0477983  
H65      H      0.525210000000     0.000400000000     0.728050000000     0.0470101  
H66      H      0.455040000000     0.131590000000     0.721640000000     0.0507639  
H67      H      0.432350000000     0.080510000000     0.870800000000     0.0388224  
H68      H      0.530290000000     0.000370000000     0.643760000000     0.0372736  
H69      H      0.559160000000     0.084650000000     0.815340000000     0.0588708  
H70      H      0.427640000000     0.082490000000     0.698120000000     0.0526074  
H71      H      0.558590000000     0.011040000000     0.854230000000     0.0389545  
H72      H      0.483090000000     0.127050000000     0.824150000000     0.060521   
H73      H      0.471790000000     0.002790000000     0.701610000000     0.0552762  
H74      H      0.458540000000     0.127040000000     0.636470000000     0.0352213  
H75      H      0.432170000000     0.035560000000     0.829360000000     0.0325558  
H76      H      0.566510000000     0.023850000000     0.221800000000     0.0445977  
H77      H      0.416130000000     0.001530000000     0.332370000000     0.0341297  
H78      H      0.477130000000     0.927180000000     0.165480000000     0.0273826  
H79      H      0.432200000000     0.965080000000     0.221240000000     0.0463667  
H80      H      0.453940000000     0.944690000000     0.287520000000     0.0456734  
H81      H      0.530980000000     0.071260000000     0.275200000000     0.0488198  
H82      H      0.572310000000     0.009950000000     0.139430000000     0.0362891  
H83      H      0.442350000000     0.962500000000     0.370600000000     0.037681   
H84      H      0.436930000000     0.018680000000     0.193600000000     0.0582954  
H85      H      0.551020000000     0.029110000000     0.314440000000     0.052433   
H86      H      0.436220000000     0.960490000000     0.135800000000     0.0365714  
H87      H      0.525400000000     0.056480000000     0.190450000000     0.0540811  
H88      H      0.504210000000     0.949630000000     0.319390000000     0.0532219  
H89      H      0.511860000000     0.089630000000     0.354480000000     0.0356335  
H90      H      0.559330000000     0.959080000000     0.171040000000     0.0299351  
H91      H      0.073980000000     0.461060000000     0.809970000000     0.052137   
H92      H      0.968890000000     0.502990000000     0.713970000000     0.0368064  
H93      H      0.061620000000     0.581770000000     0.884230000000     0.0305253  
H94      H      0.001580000000     0.589140000000     0.829900000000     0.0445383  
H95      H      0.973970000000     0.569740000000     0.762060000000     0.0451729  
H96      H      0.105370000000     0.501950000000     0.758540000000     0.0487403  
H97      H      0.077260000000     0.451750000000     0.894150000000     0.0382176  
H98      H      0.964690000000     0.553860000000     0.680410000000     0.0361591  
H99      H      0.973830000000     0.538000000000     0.849340000000     0.0527375  
H100     H      0.096250000000     0.552390000000     0.727700000000     0.0532361  
H101     H      0.008350000000     0.579110000000     0.913010000000     0.0360571  
H102     H      0.020240000000     0.458050000000     0.835710000000     0.0593065  
H103     H      0.018900000000     0.593920000000     0.729040000000     0.0517846  
H104     H      0.094570000000     0.491690000000     0.673980000000     0.0375781  
H105     H      0.105570000000     0.501610000000     0.874070000000     0.0279632  
H106     H      0.038680000000     0.540230000000     0.262740000000     0.054556   
H107     H      0.942160000000     0.504480000000     0.367040000000     0.0374305  
H108     H      0.034650000000     0.401990000000     0.211850000000     0.0318322  
H109     H      0.965320000000     0.410760000000     0.253720000000     0.0467106  
H110     H      0.943390000000     0.435560000000     0.322310000000     0.046581   
H111     H      0.076300000000     0.499200000000     0.311250000000     0.048639   
H112     H      0.071590000000     0.525020000000     0.187490000000     0.0372458  
H113     H      0.941970000000     0.456590000000     0.404900000000     0.0366423  
H114     H      0.947250000000     0.458030000000     0.219490000000     0.0590014  
H115     H      0.067800000000     0.453160000000     0.348530000000     0.0542877  
H116     H      0.989470000000     0.405180000000     0.171290000000     0.0379445  
H117     H      0.995500000000     0.533680000000     0.221960000000     0.063065   
H118     H      0.989690000000     0.411990000000     0.353860000000     0.0507644  
H119     H      0.070370000000     0.522280000000     0.392190000000     0.036767   
H120     H      0.082670000000     0.477890000000     0.224420000000     0.0282807  
H121     H      0.257920000000     0.103430000000     0.467910000000     0.0457473  
H122     H      0.155170000000     0.955680000000     0.521100000000     0.0334581  
H123     H      0.315570000000     0.037430000000     0.579710000000     0.0282073  
H124     H      0.263190000000     0.981100000000     0.552010000000     0.0460376  
H125     H      0.198620000000     0.004290000000     0.571330000000     0.0452418  
H126     H      0.201320000000     0.064070000000     0.434730000000     0.049773   
H127     H      0.340170000000     0.112170000000     0.476320000000     0.038922   
H128     H      0.117700000000     0.984310000000     0.558960000000     0.0372795  
H129     H      0.290310000000     0.977680000000     0.498510000000     0.0578383  
H130     H      0.164310000000     0.088430000000     0.476190000000     0.0522526  
H131     H      0.346260000000     0.990180000000     0.557100000000     0.0375925  
H132     H      0.288370000000     0.056050000000     0.443740000000     0.0560372  
H133     H      0.164170000000     0.051950000000     0.559840000000     0.0530948  
H134     H      0.122690000000     0.040290000000     0.424310000000     0.036816   
H135     H      0.310330000000     0.112150000000     0.529470000000     0.0306529  
H136     H      0.698580000000     0.959410000000     0.500960000000     0.0507388  
H137     H      0.812490000000     0.993610000000     0.404550000000     0.0376623  
H138     H      0.658200000000     0.099120000000     0.502450000000     0.0329322  
H139     H      0.703210000000     0.093040000000     0.434590000000     0.0447228  
H140     H      0.766120000000     0.060820000000     0.406740000000     0.0455062  
H141     H      0.754480000000     0.988500000000     0.536430000000     0.0491337  
H142     H      0.619400000000     0.974750000000     0.522720000000     0.0379799  
H143     H      0.847750000000     0.043220000000     0.405360000000     0.0373077  
H144     H      0.667870000000     0.049480000000     0.410550000000     0.05159    
H145     H      0.788050000000     0.037770000000     0.533590000000     0.0545184  
H146     H      0.622210000000     0.103950000000     0.453670000000     0.0367666  
H147     H      0.664180000000     0.969740000000     0.453120000000     0.0572822  
H148     H      0.795390000000     0.084080000000     0.455120000000     0.0518331  
H149     H      0.837150000000     0.973140000000     0.532930000000     0.0364033  
H150     H      0.656690000000     0.016660000000     0.545710000000     0.0292206  
H151     H      0.064710000000     0.719930000000     0.455250000000     0.047504   
H152     H      0.919340000000     0.828690000000     0.480650000000     0.0373817  
H153     H      0.980560000000     0.690830000000     0.566130000000     0.0274395  
H154     H      0.927040000000     0.721220000000     0.508700000000     0.0483653  
H155     H      0.952670000000     0.781510000000     0.540590000000     0.046113   
H156     H      0.035440000000     0.780080000000     0.417450000000     0.0523011  
H157     H      0.076530000000     0.644340000000     0.491490000000     0.0382867  
H158     H      0.936700000000     0.863000000000     0.527560000000     0.03855    
H159     H      0.943440000000     0.678440000000     0.469870000000     0.0604365  
H160     H      0.055720000000     0.812470000000     0.464900000000     0.0539101  
H161     H      0.942600000000     0.647360000000     0.547390000000     0.0374341  
H162     H      0.025220000000     0.678110000000     0.435240000000     0.0603514  
H163     H      0.002560000000     0.814380000000     0.540060000000     0.0551369  
H164     H      0.023720000000     0.865500000000     0.411240000000     0.0370501  
H165     H      0.064600000000     0.688820000000     0.531640000000     0.0303678  
H166     H      0.968690000000     0.217250000000     0.579470000000     0.0499145  
H167     H      0.077010000000     0.327340000000     0.558780000000     0.0368543  
H168     H      0.966610000000     0.188410000000     0.439580000000     0.0300141  
H169     H      0.035220000000     0.231530000000     0.447400000000     0.0443226  
H170     H      0.071960000000     0.285900000000     0.488240000000     0.0452721  
H171     H      0.943350000000     0.282190000000     0.560760000000     0.0492186  
H172     H      0.947990000000     0.137910000000     0.558420000000     0.0376443  
H173     H      0.082270000000     0.365760000000     0.511720000000     0.0379331  
H174     H      0.059040000000     0.191450000000     0.487080000000     0.0520167  
H175     H      0.947990000000     0.318330000000     0.513300000000     0.0538986  
H176     H      0.014140000000     0.152060000000     0.429060000000     0.0367098  
H177     H      0.016300000000     0.183000000000     0.568260000000     0.0573268  
H178     H      0.027640000000     0.321980000000     0.466790000000     0.051336   
H179     H      0.954210000000     0.364770000000     0.579790000000     0.0383024  
H180     H      0.925370000000     0.179050000000     0.519780000000     0.0281647  
N1       N      0.899110000000     0.488350000000     0.037870000000    -0.174945   
N2       N      0.668050000000     0.514430000000     0.017380000000    -0.174459   
N3       N      0.850940000000     0.485320000000     0.149960000000    -0.1094     
N4       N      0.169190000000     0.487110000000     0.050330000000    -0.175405   
N5       N      0.397980000000     0.527670000000     0.019270000000    -0.175144   
N6       N      0.224560000000     0.392050000000     0.104120000000    -0.106502   
N7       N      0.487060000000     0.881740000000     0.969070000000    -0.1752     
N8       N      0.536090000000     0.655770000000     0.005310000000    -0.174805   
N9       N      0.488230000000     0.844450000000     0.852650000000    -0.108101   
N10      N      0.509970000000     0.149330000000     0.023490000000    -0.174703   
N11      N      0.521330000000     0.384000000000     0.035530000000    -0.174367   
N12      N      0.496120000000     0.202640000000     0.914410000000    -0.109314   
N13      N      0.498040000000     0.065910000000     0.635690000000    -0.174836   
N14      N      0.493220000000     0.041160000000     0.865850000000    -0.173193   
N15      N      0.558310000000     0.166900000000     0.669440000000    -0.105743   
N16      N      0.472620000000     0.029110000000     0.365950000000    -0.174265   
N17      N      0.504460000000     0.985060000000     0.133390000000    -0.174275   
N18      N      0.418800000000     0.114490000000     0.296490000000    -0.106802   
N19      N      0.026420000000     0.516190000000     0.673600000000    -0.174408   
N20      N      0.044810000000     0.516010000000     0.908100000000    -0.17445    
N21      N      0.040860000000     0.404110000000     0.720790000000    -0.101449   
N22      N      0.003670000000     0.494930000000     0.402050000000    -0.174898   
N23      N      0.032160000000     0.464170000000     0.175690000000    -0.174572   
N24      N      0.008520000000     0.600590000000     0.340200000000    -0.10804    
N25      N      0.116660000000     0.007110000000     0.489290000000    -0.174037   
N26      N      0.347570000000     0.052030000000     0.517460000000    -0.173504   
N27      N      0.182410000000     0.945970000000     0.406360000000    -0.106905   
N28      N      0.846350000000     0.003720000000     0.467050000000    -0.174051   
N29      N      0.617040000000     0.041420000000     0.491480000000    -0.173506   
N30      N      0.792100000000     0.894060000000     0.466220000000    -0.106029   
N31      N      0.977510000000     0.867920000000     0.466950000000    -0.173981   
N32      N      0.010890000000     0.642350000000     0.522740000000    -0.173796   
N33      N      0.933290000000     0.816880000000     0.365060000000    -0.102543   
N34      N      0.019690000000     0.369150000000     0.548870000000    -0.173907   
N35      N      0.979140000000     0.141060000000     0.492210000000    -0.174507   
N36      N      0.016210000000     0.308940000000     0.655430000000    -0.101397   
O1       O      0.976510000000     0.069420000000     0.523030000000    -0.399094   
O2       O      0.977130000000     0.932290000000     0.510300000000    -0.400495   
O3       O      0.046450000000     0.000410000000     0.522000000000    -0.394508   
O4       O      0.910090000000     0.999840000000     0.510570000000    -0.397453   
O5       O      0.916760000000     0.009160000000     0.435750000000    -0.396408   
O6       O      0.052230000000     0.008970000000     0.447070000000    -0.39926    
O7       O      0.985740000000     0.939020000000     0.435360000000    -0.390875   
O8       O      0.984970000000     0.077000000000     0.448210000000    -0.398809   
O9       O      0.046070000000     0.503410000000     0.466140000000    -0.402297   
O10      O      0.058080000000     0.509950000000     0.602780000000    -0.397616   
O11      O      0.054080000000     0.437970000000     0.537320000000    -0.399213   
O12      O      0.050350000000     0.575610000000     0.529190000000    -0.398901   
O13      O      0.975560000000     0.573650000000     0.533150000000    -0.396336   
O14      O      0.980370000000     0.436460000000     0.550510000000    -0.396229   
O15      O      0.983560000000     0.514380000000     0.609140000000    -0.398098   
O16      O      0.971900000000     0.495540000000     0.473160000000    -0.396276   
O17      O      0.491370000000     0.018740000000     0.574150000000    -0.398141   
O18      O      0.471680000000     0.000210000000     0.438690000000    -0.39416    
O19      O      0.548690000000     0.006400000000     0.498890000000    -0.398404   
O20      O      0.413820000000     0.012200000000     0.516800000000    -0.397375   
O21      O      0.414700000000     0.086090000000     0.499470000000    -0.395651   
O22      O      0.551060000000     0.081940000000     0.491280000000    -0.395374   
O23      O      0.479790000000     0.074950000000     0.428160000000    -0.399213   
O24      O      0.486510000000     0.093850000000     0.564000000000    -0.396013   
O25      O      0.538780000000     0.998100000000     0.065050000000    -0.399667   
O26      O      0.533180000000     0.025670000000     0.930430000000    -0.398227   
O27      O      0.541860000000     0.079190000000     0.012460000000    -0.398308   
O28      O      0.530250000000     0.944960000000     0.982330000000    -0.399477   
O29      O      0.455730000000     0.950230000000     0.988360000000    -0.399298   
O30      O      0.467170000000     0.085000000000     0.015090000000    -0.398347   
O31      O      0.458680000000     0.032640000000     0.934860000000    -0.396557   
O32      O      0.464060000000     0.002060000000     0.069270000000    -0.397104   
O33      O      0.028050000000     0.438710000000     0.102040000000    -0.393391   
O34      O      0.041390000000     0.465140000000     0.967040000000    -0.397192   
O35      O      0.102100000000     0.450770000000     0.039530000000    -0.398655   
O36      O      0.966820000000     0.452630000000     0.028110000000    -0.400128   
O37      O      0.966080000000     0.525600000000     0.048890000000    -0.398701   
O38      O      0.102310000000     0.525870000000     0.050960000000    -0.399937   
O39      O      0.034710000000     0.539380000000     0.981540000000    -0.400819   
O40      O      0.034500000000     0.513130000000     0.115930000000    -0.403219   
O41      O      0.532620000000     0.455300000000     0.064850000000    -0.398986   
O42      O      0.533760000000     0.592100000000     0.049610000000    -0.402854   
O43      O      0.465170000000     0.526200000000     0.057480000000    -0.398231   
O44      O      0.601590000000     0.523310000000     0.055990000000    -0.398109   
O45      O      0.599950000000     0.508790000000     0.981760000000    -0.401382   
O46      O      0.464860000000     0.520540000000     0.981980000000    -0.402651   
O47      O      0.538540000000     0.583860000000     0.974540000000    -0.397091   
O48      O      0.525290000000     0.446980000000     0.989940000000    -0.398513   


