data_structure

_audit_creation_method RASPA-1.0
_audit_creation_date 2023-5-25
_audit_author_name 'Poobodin Mano'

_cell_length_a    29.415
_cell_length_b    29.7491
_cell_length_c    29.2581
_cell_angle_alpha 89.9998
_cell_angle_beta  89.9998
_cell_angle_gamma 89.9998
_cell_volume      25602.9

_symmetry_cell_setting          triclinic
_symmetry_space_group_name_Hall 'P 1'
_symmetry_space_group_name_H-M  'P 1'
_symmetry_Int_Tables_number     1

_symmetry_equiv_pos_as_xyz 'x,y,z'

loop_
_atom_site_label
_atom_site_type_symbol
_atom_site_fract_x
_atom_site_fract_y
_atom_site_fract_z
_atom_site_charge
C1       C      0.122050000000     0.025780000000     0.555110000000     0.40119    
C2       C      0.944680000000     0.018820000000     0.519770000000     0.404784   
C3       C      0.029810000000     0.111240000000     0.541940000000     0.40412    
C4       C      0.039100000000     0.932680000000     0.533340000000     0.400901   
C5       C      0.008740000000     0.506170000000     0.415850000000     0.40112    
C6       C      0.031970000000     0.539960000000     0.593080000000     0.401097   
C7       C      0.019090000000     0.434700000000     0.520060000000     0.400001   
C8       C      0.019740000000     0.611150000000     0.488460000000     0.404496   
C9       C      0.532350000000     0.985780000000     0.614370000000     0.401739   
C10      C      0.525250000000     0.977520000000     0.432760000000     0.400896   
C11      C      0.620510000000     0.982020000000     0.520930000000     0.400361   
C12      C      0.439430000000     0.982240000000     0.526770000000     0.405135   
C13      C      0.491190000000     0.994700000000     0.105560000000     0.404228   
C14      C      0.470090000000     0.026540000000     0.928190000000     0.404912   
C15      C      0.482880000000     0.097820000000     0.033210000000     0.404265   
C16      C      0.476390000000     0.922300000000     0.000000000000     0.404805   
C17      C      0.996360000000     0.477930000000     0.095870000000     0.406027   
C18      C      0.012260000000     0.508730000000     0.917340000000     0.40537    
C19      C      0.094990000000     0.501470000000     0.014090000000     0.406207   
C20      C      0.915430000000     0.486140000000     0.999530000000     0.402828   
C21      C      0.418890000000     0.501720000000     0.013760000000     0.401837   
C22      C      0.596920000000     0.513170000000     0.984220000000     0.406499   
C23      C      0.514400000000     0.418610000000     0.000150000000     0.401935   
C24      C      0.502660000000     0.597050000000     0.997880000000     0.401042   
C25      C      0.840660000000     0.515370000000     0.022960000000     0.0136105  
C26      C      0.663290000000     0.498790000000     0.934150000000     0.021995   
C27      C      0.672990000000     0.536660000000     0.011140000000     0.188461   
C28      C      0.702730000000     0.466400000000     0.944790000000    -0.112099   
C29      C      0.805200000000     0.534390000000     0.990620000000    -0.101145   
C30      C      0.711710000000     0.504440000000     0.022490000000    -0.152494   
C31      C      0.778970000000     0.495960000000     0.969570000000     0.0168315  
C32      C      0.734390000000     0.488220000000     0.979010000000     0.0462887  
C33      C      0.846220000000     0.444840000000     0.975010000000     0.010529   
C34      C      0.807970000000     0.462420000000     0.943560000000    -0.100796   
C35      C      0.353080000000     0.509000000000     0.065870000000     0.0112418  
C36      C      0.170180000000     0.475020000000     0.988490000000     0.0234141  
C37      C      0.162800000000     0.545020000000     0.037780000000     0.187845   
C38      C      0.211220000000     0.460110000000     0.016320000000    -0.112226   
C39      C      0.309000000000     0.536120000000     0.059580000000    -0.0999712  
C40      C      0.204620000000     0.530130000000     0.065800000000    -0.1525     
C41      C      0.278380000000     0.511960000000     0.026070000000     0.0174175  
C42      C      0.234770000000     0.500650000000     0.036460000000     0.0456439  
C43      C      0.343980000000     0.475250000000     0.987000000000     0.0118724  
C44      C      0.299940000000     0.501410000000     0.980310000000    -0.0991191  
C45      C      0.518760000000     0.668530000000     0.958030000000     0.0104715  
C46      C      0.434170000000     0.850960000000     0.006200000000     0.0232824  
C47      C      0.505430000000     0.855540000000     0.958350000000     0.186647   
C48      C      0.450200000000     0.807200000000     0.028150000000    -0.112283   
C49      C      0.490960000000     0.711220000000     0.949220000000    -0.098013   
C50      C      0.520360000000     0.809240000000     0.976160000000    -0.151006   
C51      C      0.480510000000     0.736280000000     0.993170000000     0.0117948  
C52      C      0.481030000000     0.782060000000     0.995560000000     0.0454857  
C53      C      0.491980000000     0.667770000000     0.040150000000     0.0122967  
C54      C      0.460550000000     0.707640000000     0.030900000000    -0.0994735  
C55      C      0.546620000000     0.349450000000     0.034550000000     0.0115078  
C56      C      0.443080000000     0.170920000000     0.033510000000     0.0227008  
C57      C      0.523910000000     0.165380000000     0.061500000000     0.186694   
C58      C      0.455230000000     0.210090000000     0.001990000000    -0.111738   
C59      C      0.521360000000     0.309130000000     0.054780000000    -0.0980848  
C60      C      0.536760000000     0.207010000000     0.033360000000    -0.150985   
C61      C      0.498510000000     0.281120000000     0.017900000000     0.0114357  
C62      C      0.495540000000     0.235540000000     0.021260000000     0.0458177  
C63      C      0.498770000000     0.345510000000     0.963390000000     0.0120031  
C64      C      0.470340000000     0.307330000000     0.983630000000    -0.098827   
C65      C      0.546430000000     0.028750000000     0.685510000000     0.012327   
C66      C      0.428490000000     0.014290000000     0.855860000000     0.0220823  
C67      C      0.498170000000     0.063530000000     0.857950000000     0.189046   
C68      C      0.449030000000     0.985720000000     0.817220000000    -0.110936   
C69      C      0.507420000000     0.046160000000     0.714910000000    -0.0982286  
C70      C      0.519890000000     0.036490000000     0.819340000000    -0.15224    
C71      C      0.488810000000     0.008570000000     0.744570000000     0.0115594  
C72      C      0.484120000000     0.012660000000     0.790690000000     0.047101   
C73      C      0.514590000000     0.950320000000     0.688900000000     0.0100763  
C74      C      0.474770000000     0.966460000000     0.718870000000    -0.0984178  
C75      C      0.493170000000     0.010360000000     0.362690000000     0.0114343  
C76      C      0.539720000000     0.968650000000     0.168850000000     0.0226959  
C77      C      0.467810000000     0.014040000000     0.183960000000     0.186928   
C78      C      0.530780000000     0.940310000000     0.211720000000    -0.113239   
C79      C      0.511140000000     0.019060000000     0.314550000000    -0.100023   
C80      C      0.460200000000     0.986920000000     0.227730000000    -0.152094   
C81      C      0.519310000000     0.975370000000     0.289330000000     0.0152864  
C82      C      0.504550000000     0.968290000000     0.245790000000     0.0460456  
C83      C      0.529370000000     0.932990000000     0.361870000000     0.0120605  
C84      C      0.549270000000     0.942180000000     0.314320000000    -0.100701   
C85      C      0.004750000000     0.575580000000     0.664630000000     0.0111625  
C86      C      0.036380000000     0.481360000000     0.841670000000     0.0232629  
C87      C      0.993540000000     0.555130000000     0.849640000000     0.187209   
C88      C      0.068680000000     0.502650000000     0.806820000000    -0.113492   
C89      C      0.996310000000     0.554070000000     0.711420000000    -0.09756    
C90      C      0.023590000000     0.575430000000     0.812090000000    -0.151779   
C91      C      0.040230000000     0.540120000000     0.734980000000     0.0124259  
C92      C      0.043450000000     0.539270000000     0.781490000000     0.0458823  
C93      C      0.082430000000     0.540930000000     0.660620000000     0.0121602  
C94      C      0.074440000000     0.515480000000     0.705330000000    -0.0989715  
C95      C      0.041690000000     0.477210000000     0.344130000000     0.0108553  
C96      C      0.956890000000     0.498480000000     0.167190000000     0.0236332  
C97      C      0.002400000000     0.426630000000     0.161980000000     0.189973   
C98      C      0.974290000000     0.506910000000     0.215620000000    -0.111525   
C99      C      0.025080000000     0.439250000000     0.312840000000    -0.0990779  
C100     C      0.022690000000     0.435350000000     0.209510000000    -0.154475   
C101     C      0.986540000000     0.457320000000     0.284060000000     0.0128185  
C102     C      0.990950000000     0.464010000000     0.238170000000     0.0493368  
C103     C      0.962230000000     0.510690000000     0.345470000000     0.010334   
C104     C      0.946700000000     0.474420000000     0.311840000000    -0.0980703  
C105     C      0.188090000000     0.006610000000     0.604130000000     0.0104624  
C106     C      0.367680000000     0.021940000000     0.509700000000     0.0235549  
C107     C      0.366460000000     0.944890000000     0.546630000000     0.186133   
C108     C      0.335120000000     0.039660000000     0.545800000000    -0.111777   
C109     C      0.227910000000     0.976160000000     0.589320000000    -0.0990336  
C110     C      0.331300000000     0.961860000000     0.582000000000    -0.150737   
C111     C      0.259390000000     0.001520000000     0.557280000000     0.0164583  
C112     C      0.305390000000     0.001620000000     0.562590000000     0.0444725  
C113     C      0.197950000000     0.054180000000     0.533630000000     0.0126025  
C114     C      0.236340000000     0.024090000000     0.516970000000    -0.0987724  
C115     C      0.693940000000     0.943280000000     0.507370000000     0.0106381  
C116     C      0.867540000000     0.043060000000     0.541460000000     0.0236635  
C117     C      0.880570000000     0.998920000000     0.468570000000     0.18792    
C118     C      0.826630000000     0.013860000000     0.553140000000    -0.111832   
C119     C      0.735220000000     0.957600000000     0.478250000000    -0.0992188  
C120     C      0.839030000000     0.969010000000     0.479600000000    -0.152254   
C121     C      0.760450000000     0.995340000000     0.502020000000     0.0145487  
C122     C      0.806030000000     0.994160000000     0.510130000000     0.0467679  
C123     C      0.691150000000     0.020500000000     0.543590000000     0.011607   
C124     C      0.731400000000     0.035430000000     0.514600000000    -0.0986256  
C125     C      0.023610000000     0.858120000000     0.567270000000     0.0111508  
C126     C      0.058690000000     0.681120000000     0.462950000000     0.022807   
C127     C      0.977560000000     0.683120000000     0.490280000000     0.188523   
C128     C      0.070380000000     0.721770000000     0.492980000000    -0.110829   
C129     C      0.998820000000     0.818450000000     0.545090000000    -0.0974574  
C130     C      0.988530000000     0.721320000000     0.523600000000    -0.1535     
C131     C      0.029810000000     0.794380000000     0.511540000000     0.0114164  
C132     C      0.028360000000     0.748790000000     0.506150000000     0.0480865  
C133     C      0.075080000000     0.865420000000     0.499090000000     0.0110094  
C134     C      0.052930000000     0.824510000000     0.476610000000    -0.0973476  
C135     C      0.052420000000     0.360810000000     0.502060000000     0.0110927  
C136     C      0.014000000000     0.180190000000     0.586180000000     0.0226671  
C137     C      0.055970000000     0.183700000000     0.510390000000     0.187711   
C138     C      0.988120000000     0.223500000000     0.574370000000    -0.112915   
C139     C      0.065580000000     0.320290000000     0.531130000000    -0.0992623  
C140     C      0.031010000000     0.227340000000     0.498850000000    -0.152722   
C141     C      0.023560000000     0.296430000000     0.548400000000     0.0137092  
C142     C      0.016100000000     0.251660000000     0.541790000000     0.0471005  
C143     C      0.977770000000     0.366730000000     0.545130000000     0.0109484  
C144     C      0.991150000000     0.326180000000     0.574800000000    -0.0996267  
Cu1      Cu     0.041830000000     0.024190000000     0.496200000000     0.840497   
Cu2      Cu     0.025070000000     0.019570000000     0.578660000000     0.839194   
Cu3      Cu     0.061480000000     0.521490000000     0.498950000000     0.84189    
Cu4      Cu     0.978310000000     0.524440000000     0.510120000000     0.841645   
Cu5      Cu     0.529930000000     0.940250000000     0.525430000000     0.835504   
Cu6      Cu     0.529870000000     0.023230000000     0.521640000000     0.847669   
Cu7      Cu     0.521700000000     0.009520000000     0.011750000000     0.836236   
Cu8      Cu     0.438760000000     0.010560000000     0.021790000000     0.844962   
Cu9      Cu     0.009640000000     0.452930000000     0.999460000000     0.843373   
Cu10     Cu     0.000680000000     0.534280000000     0.014040000000     0.844383   
Cu11     Cu     0.501320000000     0.506420000000     0.957370000000     0.841738   
Cu12     Cu     0.514570000000     0.509120000000     0.040630000000     0.845177   
H1       H      0.783580000000     0.559570000000     0.008170000000     0.0588502  
H2       H      0.676860000000     0.527700000000     0.914260000000     0.0371419  
H3       H      0.830870000000     0.422360000000     0.001170000000     0.0305193  
H4       H      0.788310000000     0.432980000000     0.931220000000     0.0438019  
H5       H      0.719850000000     0.458300000000     0.912000000000     0.0472424  
H6       H      0.735340000000     0.519780000000     0.047560000000     0.0657853  
H7       H      0.860500000000     0.543480000000     0.038070000000     0.0368782  
H8       H      0.638250000000     0.480950000000     0.912210000000     0.0344914  
H9       H      0.823230000000     0.479370000000     0.913380000000     0.0519506  
H10      H      0.697100000000     0.474620000000     0.040100000000     0.0632432  
H11      H      0.870340000000     0.424550000000     0.954250000000     0.0359876  
H12      H      0.822870000000     0.552950000000     0.962830000000     0.0583977  
H13      H      0.689060000000     0.434720000000     0.959490000000     0.0526532  
H14      H      0.655060000000     0.544480000000     0.043740000000     0.000989104
H15      H      0.822960000000     0.498050000000     0.051580000000     0.0273644  
H16      H      0.665770000000     0.598490000000     0.991950000000     0.146828   
H17      H      0.293160000000     0.539870000000     0.093820000000     0.0440985  
H18      H      0.182550000000     0.493000000000     0.957560000000     0.0329539  
H19      H      0.335240000000     0.441020000000     0.999540000000     0.0269019  
H20      H      0.277250000000     0.483210000000     0.956390000000     0.0457396  
H21      H      0.233850000000     0.438370000000     0.995570000000     0.0465468  
H22      H      0.222170000000     0.560800000000     0.078290000000     0.0676156  
H23      H      0.376840000000     0.528960000000     0.087390000000     0.0356654  
H24      H      0.151560000000     0.444730000000     0.976490000000     0.033758   
H25      H      0.308170000000     0.533810000000     0.963280000000     0.0574835  
H26      H      0.193250000000     0.510620000000     0.096120000000     0.0601895  
H27      H      0.361090000000     0.471160000000     0.953380000000     0.0361428  
H28      H      0.317110000000     0.570150000000     0.046190000000     0.0543569  
H29      H      0.199070000000     0.438670000000     0.044960000000     0.0544597  
H30      H      0.138910000000     0.561790000000     0.061990000000    -0.00118751 
H31      H      0.345000000000     0.477420000000     0.084540000000     0.0303812  
H32      H      0.148530000000     0.590090000000     0.992240000000     0.151648   
H33      H      0.508560000000     0.731870000000     0.923200000000     0.049861   
H34      H      0.412070000000     0.842860000000     0.976450000000     0.0372521  
H35      H      0.524600000000     0.680410000000     0.054510000000     0.0303825  
H36      H      0.457240000000     0.726300000000     0.063620000000     0.0429202  
H37      H      0.419170000000     0.787500000000     0.036480000000     0.0470971  
H38      H      0.539460000000     0.791650000000     0.948900000000     0.0680035  
H39      H      0.519400000000     0.647940000000     0.926330000000     0.0375408  
H40      H      0.413150000000     0.869370000000     0.031640000000     0.0346776  
H41      H      0.426340000000     0.695460000000     0.020540000000     0.0518804  
H42      H      0.545070000000     0.814590000000     0.004400000000     0.061657   
H43      H      0.475650000000     0.646100000000     0.066450000000     0.0358797  
H44      H      0.458000000000     0.701230000000     0.933650000000     0.0551103  
H45      H      0.468830000000     0.814520000000     0.060370000000     0.0526755  
H46      H      0.536840000000     0.875940000000     0.953360000000     0.000610994
H47      H      0.554410000000     0.678690000000     0.965360000000     0.0284202  
H48      H      0.481280000000     0.880260000000     0.902140000000     0.14551    
H49      H      0.545090000000     0.289950000000     0.076690000000     0.0505032  
H50      H      0.430710000000     0.184620000000     0.066640000000     0.0375134  
H51      H      0.526760000000     0.330780000000     0.942640000000     0.0296288  
H52      H      0.459120000000     0.285950000000     0.954600000000     0.0432031  
H53      H      0.424530000000     0.231720000000     0.999460000000     0.0471233  
H54      H      0.563960000000     0.225630000000     0.051400000000     0.0679043  
H55      H      0.557690000000     0.372030000000     0.062700000000     0.0368253  
H56      H      0.414680000000     0.151820000000     0.017670000000     0.035069   
H57      H      0.439750000000     0.321260000000     0.000870000000     0.0514309  
H58      H      0.552140000000     0.195420000000     0.000710000000     0.0623203  
H59      H      0.476710000000     0.365490000000     0.940150000000     0.0363582  
H60      H      0.494300000000     0.321960000000     0.077870000000     0.056465   
H61      H      0.463740000000     0.197260000000     0.967330000000     0.052572   
H62      H      0.554150000000     0.142790000000     0.062130000000     0.00175195 
H63      H      0.577840000000     0.336770000000     0.017400000000     0.0275768  
H64      H      0.512350000000     0.151050000000     0.124970000000     0.146747   
H65      H      0.518170000000     0.076460000000     0.734030000000     0.0511655  
H66      H      0.407040000000     0.041080000000     0.840420000000     0.037387   
H67      H      0.542250000000     0.938050000000     0.711640000000     0.030321   
H68      H      0.465490000000     0.938400000000     0.742090000000     0.0436522  
H69      H      0.420540000000     0.974850000000     0.794830000000     0.0472574  
H70      H      0.543040000000     0.058560000000     0.799700000000     0.066927   
H71      H      0.558100000000     0.055800000000     0.662060000000     0.0360752  
H72      H      0.406200000000     0.992560000000     0.877190000000     0.0336666  
H73      H      0.444900000000     0.974180000000     0.696960000000     0.0504072  
H74      H      0.541970000000     0.010230000000     0.834790000000     0.0643112  
H75      H      0.502830000000     0.921550000000     0.667730000000     0.0370676  
H76      H      0.479660000000     0.057590000000     0.691870000000     0.0564695  
H77      H      0.465500000000     0.955320000000     0.831870000000     0.0518674  
H78      H      0.526010000000     0.075710000000     0.880670000000    -0.000547009
H79      H      0.575360000000     0.020230000000     0.708420000000     0.0274302  
H80      H      0.467230000000     0.120480000000     0.865240000000     0.145234   
H81      H      0.488100000000     0.042570000000     0.296510000000     0.056476   
H82      H      0.564450000000     0.995660000000     0.177440000000     0.0376364  
H83      H      0.497170000000     0.913730000000     0.357990000000     0.0311743  
H84      H      0.551400000000     0.909290000000     0.296490000000     0.0433086  
H85      H      0.564330000000     0.929190000000     0.224860000000     0.0470519  
H86      H      0.440920000000     0.007040000000     0.253080000000     0.0669497  
H87      H      0.492870000000     0.042640000000     0.381840000000     0.0378073  
H88      H      0.555750000000     0.946660000000     0.142640000000     0.0332297  
H89      H      0.584150000000     0.956200000000     0.317560000000     0.0522115  
H90      H      0.437860000000     0.957910000000     0.219370000000     0.0615796  
H91      H      0.553740000000     0.911540000000     0.381110000000     0.0352699  
H92      H      0.544270000000     0.036810000000     0.317420000000     0.0579021  
H93      H      0.510660000000     0.909990000000     0.202560000000     0.0520241  
H94      H      0.433610000000     0.020760000000     0.169000000000     0.00132418 
H95      H      0.457280000000     0.998890000000     0.359920000000     0.0287898  
H96      H      0.485470000000     0.074800000000     0.168120000000     0.146398   
H97      H      0.975170000000     0.577370000000     0.731840000000     0.0529611  
H98      H      0.008780000000     0.463460000000     0.823090000000     0.0366019  
H99      H      0.099570000000     0.573370000000     0.668440000000     0.0293425  
H100     H      0.107970000000     0.512770000000     0.722650000000     0.0431563  
H101     H      0.080940000000     0.475270000000     0.784200000000     0.0467246  
H102     H      0.004880000000     0.602050000000     0.793450000000     0.0664546  
H103     H      0.971850000000     0.578950000000     0.646250000000     0.0368909  
H104     H      0.055830000000     0.455940000000     0.861550000000     0.0334202  
H105     H      0.061670000000     0.481090000000     0.697840000000     0.0518855  
H106     H      0.052500000000     0.592970000000     0.828870000000     0.0617805  
H107     H      0.105660000000     0.520660000000     0.638830000000     0.0364221  
H108     H      0.975560000000     0.523240000000     0.706320000000     0.0585767  
H109     H      0.098550000000     0.517340000000     0.824670000000     0.0532443  
H110     H      0.986410000000     0.582340000000     0.874850000000     0.000647371
H111     H      0.018050000000     0.610130000000     0.670350000000     0.0271631  
H112     H      0.931260000000     0.534930000000     0.855720000000     0.14732    
H113     H      0.054540000000     0.427100000000     0.292680000000     0.0435882  
H114     H      0.923350000000     0.481400000000     0.169710000000     0.034642   
H115     H      0.970270000000     0.541630000000     0.325730000000     0.0280011  
H116     H      0.917990000000     0.486590000000     0.290630000000     0.0454504  
H117     H      0.947330000000     0.524460000000     0.235070000000     0.0476594  
H118     H      0.028740000000     0.402030000000     0.225630000000     0.0688662  
H119     H      0.068700000000     0.463400000000     0.366730000000     0.0362218  
H120     H      0.950920000000     0.531370000000     0.150170000000     0.0338385  
H121     H      0.932890000000     0.445750000000     0.331880000000     0.0541963  
H122     H      0.055890000000     0.452870000000     0.206010000000     0.061037   
H123     H      0.933660000000     0.518980000000     0.368870000000     0.0367848  
H124     H      0.012630000000     0.410720000000     0.333950000000     0.0525788  
H125     H      0.003500000000     0.530550000000     0.213710000000     0.0545839  
H126     H      0.029250000000     0.409680000000     0.141250000000    -0.00173951 
H127     H      0.057250000000     0.504080000000     0.322790000000     0.0306268  
H128     H      0.957180000000     0.387550000000     0.134870000000     0.152032   
H129     H      0.245710000000     0.965080000000     0.620860000000     0.0439951  
H130     H      0.347530000000     0.011020000000     0.479500000000     0.034006   
H131     H      0.213080000000     0.082530000000     0.553220000000     0.0274372  
H132     H      0.259470000000     0.043530000000     0.494600000000     0.0458885  
H133     H      0.316000000000     0.069150000000     0.532880000000     0.0470448  
H134     H      0.308770000000     0.933310000000     0.591230000000     0.0672459  
H135     H      0.162990000000     0.986040000000     0.623390000000     0.0360836  
H136     H      0.390250000000     0.049680000000     0.498210000000     0.034066   
H137     H      0.221600000000     0.997360000000     0.494950000000     0.0587501  
H138     H      0.349300000000     0.972720000000     0.613540000000     0.0590677  
H139     H      0.179900000000     0.068860000000     0.503760000000     0.0353475  
H140     H      0.214510000000     0.945940000000     0.571500000000     0.0542708  
H141     H      0.355390000000     0.052340000000     0.575180000000     0.0556708  
H142     H      0.388760000000     0.920200000000     0.564530000000    -0.000599995
H143     H      0.201460000000     0.032940000000     0.627540000000     0.0302785  
H144     H      0.366970000000     0.907200000000     0.492730000000     0.150097   
H145     H      0.756960000000     0.927480000000     0.473170000000     0.0443214  
H146     H      0.855090000000     0.073690000000     0.523620000000     0.0342029  
H147     H      0.704230000000     0.009190000000     0.577360000000     0.0275544  
H148     H      0.750240000000     0.062710000000     0.532100000000     0.0458096  
H149     H      0.802360000000     0.033260000000     0.574350000000     0.0468786  
H150     H      0.823080000000     0.958900000000     0.446730000000     0.0688321  
H151     H      0.673100000000     0.919080000000     0.487330000000     0.0354721  
H152     H      0.884100000000     0.054340000000     0.573640000000     0.0332852  
H153     H      0.718150000000     0.050470000000     0.482460000000     0.0571738  
H154     H      0.850490000000     0.938040000000     0.497470000000     0.0608329  
H155     H      0.668690000000     0.049910000000     0.549930000000     0.0366794  
H156     H      0.723450000000     0.969410000000     0.444210000000     0.0536228  
H157     H      0.838350000000     0.985540000000     0.574960000000     0.0551708  
H158     H      0.906260000000     0.977200000000     0.451280000000    -0.000998532
H159     H      0.706510000000     0.925590000000     0.538390000000     0.0309907  
H160     H      0.895450000000     0.047360000000     0.427000000000     0.151853   
H161     H      0.987890000000     0.795950000000     0.573340000000     0.0431629  
H162     H      0.050250000000     0.693640000000     0.428160000000     0.0355726  
H163     H      0.105800000000     0.853770000000     0.517850000000     0.0283105  
H164     H      0.078760000000     0.807290000000     0.455480000000     0.0450066  
H165     H      0.097000000000     0.741640000000     0.475570000000     0.0472146  
H166     H      0.957170000000     0.741880000000     0.527120000000     0.0678003  
H167     H      0.999020000000     0.876680000000     0.589130000000     0.0363322  
H168     H      0.089220000000     0.659350000000     0.459670000000     0.0342719  
H169     H      0.026420000000     0.836600000000     0.452490000000     0.0564871  
H170     H      0.997150000000     0.707180000000     0.557690000000     0.0614666  
H171     H      0.086800000000     0.888940000000     0.472020000000     0.0375831  
H172     H      0.968070000000     0.830680000000     0.526820000000     0.0529208  
H173     H      0.086060000000     0.709190000000     0.525100000000     0.0540162  
H174     H      0.950100000000     0.662810000000     0.506450000000     0.0014203  
H175     H      0.051060000000     0.844870000000     0.589700000000     0.0296809  
H176     H      0.948880000000     0.675800000000     0.431230000000     0.148329   
H177     H      0.089380000000     0.298350000000     0.512060000000     0.0538321  
H178     H      0.043730000000     0.188940000000     0.607940000000     0.0372516  
H179     H      0.955550000000     0.354850000000     0.516820000000     0.0313339  
H180     H      0.959240000000     0.308650000000     0.584370000000     0.0432774  
H181     H      0.981340000000     0.241130000000     0.607120000000     0.0470045  
H182     H      0.051890000000     0.248010000000     0.475360000000     0.0669292  
H183     H      0.083760000000     0.379880000000     0.493410000000     0.0373535  
H184     H      0.991140000000     0.158280000000     0.606710000000     0.0332587  
H185     H      0.007990000000     0.338010000000     0.606620000000     0.0511028  
H186     H      0.999870000000     0.218660000000     0.479190000000     0.0628382  
H187     H      0.957510000000     0.390300000000     0.566490000000     0.0361963  
H188     H      0.084970000000     0.332530000000     0.561290000000     0.0556653  
H189     H      0.955030000000     0.215050000000     0.558160000000     0.0525989  
H190     H      0.060370000000     0.164950000000     0.477690000000     0.000845106
H191     H      0.037770000000     0.348370000000     0.469370000000     0.0282024  
H192     H      0.116820000000     0.165970000000     0.528100000000     0.147362   
N1       N      0.642670000000     0.515790000000     0.976860000000    -0.194896   
N2       N      0.869230000000     0.482460000000     0.998450000000    -0.175149   
N3       N      0.141200000000     0.505870000000     0.015320000000    -0.194686   
N4       N      0.373280000000     0.497410000000     0.021200000000    -0.174427   
N5       N      0.473500000000     0.877410000000     0.990400000000    -0.194128   
N6       N      0.501390000000     0.642960000000     0.997590000000    -0.174174   
N7       N      0.483650000000     0.143000000000     0.041640000000    -0.194541   
N8       N      0.518450000000     0.372880000000     0.000350000000    -0.174677   
N9       N      0.465180000000     0.035160000000     0.882680000000    -0.195191   
N10      N      0.532000000000     0.987880000000     0.661000000000    -0.174495   
N11      N      0.497490000000     0.989520000000     0.151540000000    -0.193678   
N12      N      0.519640000000     0.975220000000     0.386460000000    -0.173987   
N13      N      0.016020000000     0.516090000000     0.871390000000    -0.194155   
N14      N      0.038670000000     0.550060000000     0.638150000000    -0.174342   
N15      N      0.988090000000     0.469400000000     0.140990000000    -0.195086   
N16      N      0.003480000000     0.496570000000     0.370480000000    -0.174074   
N17      N      0.392990000000     0.983000000000     0.527940000000    -0.194364   
N18      N      0.167510000000     0.028570000000     0.563980000000    -0.174514   
N19      N      0.899090000000     0.018860000000     0.510920000000    -0.194426   
N20      N      0.666960000000     0.982690000000     0.521730000000    -0.17365    
N21      N      0.019100000000     0.656630000000     0.481280000000    -0.194546   
N22      N      0.043950000000     0.887000000000     0.531940000000    -0.174002   
N23      N      0.030400000000     0.157150000000     0.544610000000    -0.193635   
N24      N      0.018090000000     0.389020000000     0.525280000000    -0.173823   
O1       O      0.107970000000     0.030470000000     0.513930000000    -0.400574   
O2       O      0.973310000000     0.017540000000     0.486610000000    -0.399168   
O3       O      0.035680000000     0.091880000000     0.503160000000    -0.401161   
O4       O      0.048370000000     0.956230000000     0.497810000000    -0.39826    
O5       O      0.026210000000     0.951730000000     0.570520000000    -0.399005   
O6       O      0.024840000000     0.087860000000     0.578480000000    -0.399147   
O7       O      0.958440000000     0.021010000000     0.561280000000    -0.4008     
O8       O      0.093850000000     0.018920000000     0.587900000000    -0.39696    
O9       O      0.048940000000     0.509070000000     0.432400000000    -0.402344   
O10      O      0.066440000000     0.532950000000     0.567160000000    -0.400749   
O11      O      0.056750000000     0.454380000000     0.510570000000    -0.398314   
O12      O      0.057420000000     0.589230000000     0.487100000000    -0.397066   
O13      O      0.982330000000     0.590770000000     0.496970000000    -0.405235   
O14      O      0.982050000000     0.457350000000     0.523160000000    -0.398772   
O15      O      0.991450000000     0.538180000000     0.576910000000    -0.397511   
O16      O      0.973740000000     0.511880000000     0.441540000000    -0.396402   
O17      O      0.531520000000     0.947370000000     0.594420000000    -0.39895    
O18      O      0.527700000000     0.941080000000     0.456110000000    -0.399247   
O19      O      0.599170000000     0.944340000000     0.521960000000    -0.395371   
O20      O      0.460760000000     0.944600000000     0.528590000000    -0.399188   
O21      O      0.461270000000     0.019400000000     0.523540000000    -0.403433   
O22      O      0.598630000000     0.019310000000     0.520430000000    -0.400271   
O23      O      0.526230000000     0.015970000000     0.452650000000    -0.398621   
O24      O      0.532720000000     0.022250000000     0.590960000000    -0.400379   
O25      O      0.525480000000     0.992030000000     0.078610000000    -0.399872   
O26      O      0.509850000000     0.027610000000     0.946080000000    -0.403186   
O27      O      0.520220000000     0.075630000000     0.030140000000    -0.398749   
O28      O      0.514040000000     0.943470000000     0.994260000000    -0.398705   
O29      O      0.440940000000     0.943120000000     0.014180000000    -0.402929   
O30      O      0.444530000000     0.077920000000     0.028340000000    -0.403144   
O31      O      0.435030000000     0.017380000000     0.952620000000    -0.398537   
O32      O      0.451490000000     0.003850000000     0.089840000000    -0.400517   
O33      O      0.004290000000     0.445160000000     0.068420000000    -0.402759   
O34      O      0.015090000000     0.468440000000     0.932560000000    -0.402816   
O35      O      0.077430000000     0.462980000000     0.005310000000    -0.40222    
O36      O      0.940470000000     0.451240000000     0.993520000000    -0.398009   
O37      O      0.933270000000     0.524540000000     0.007850000000    -0.403802   
O38      O      0.069630000000     0.536060000000     0.020380000000    -0.402867   
O39      O      0.005850000000     0.541870000000     0.944800000000    -0.400255   
O40      O      0.994270000000     0.518440000000     0.081050000000    -0.401055   
O41      O      0.434050000000     0.503570000000     0.972660000000    -0.399274   
O42      O      0.569900000000     0.507830000000     0.950250000000    -0.400845   
O43      O      0.503780000000     0.438730000000     0.962910000000    -0.401095   
O44      O      0.500660000000     0.575030000000     0.960150000000    -0.396936   
O45      O      0.506650000000     0.576390000000     0.036110000000    -0.401857   
O46      O      0.521550000000     0.441060000000     0.036950000000    -0.398953   
O47      O      0.581380000000     0.516080000000     0.025090000000    -0.403795   
O48      O      0.446210000000     0.503170000000     0.047920000000    -0.399727   
O49      O      0.691230000000     0.576620000000     0.993420000000    -0.294238   
O50      O      0.176650000000     0.576130000000     0.004490000000    -0.292149   
O51      O      0.484070000000     0.849850000000     0.915830000000    -0.292508   
O52      O      0.514150000000     0.178920000000     0.106390000000    -0.291162   
O53      O      0.475810000000     0.100890000000     0.839160000000    -0.293283   
O54      O      0.488170000000     0.055190000000     0.195450000000    -0.292049   
O55      O      0.952330000000     0.541250000000     0.830000000000    -0.293146   
O56      O      0.964790000000     0.397860000000     0.166220000000    -0.291773   
O57      O      0.343440000000     0.923020000000     0.510980000000    -0.291848   
O58      O      0.867110000000     0.033270000000     0.438580000000    -0.291275   
O59      O      0.961100000000     0.701390000000     0.449230000000    -0.291854   
O60      O      0.099070000000     0.194360000000     0.527910000000    -0.292922   


