data_structure

_audit_creation_method RASPA-1.0
_audit_creation_date 2023-5-25
_audit_author_name 'Poobodin Mano'

_cell_length_a    29.6401
_cell_length_b    28.9823
_cell_length_c    29.3047
_cell_angle_alpha 89.9998
_cell_angle_beta  89.9998
_cell_angle_gamma 89.9998
_cell_volume      25173.9

_symmetry_cell_setting          triclinic
_symmetry_space_group_name_Hall 'P 1'
_symmetry_space_group_name_H-M  'P 1'
_symmetry_Int_Tables_number     1

_symmetry_equiv_pos_as_xyz 'x,y,z'

loop_
_atom_site_label
_atom_site_type_symbol
_atom_site_fract_x
_atom_site_fract_y
_atom_site_fract_z
_atom_site_charge
C1       C      0.002570000000     0.120940000000     0.511540000000     0.402172   
C2       C      0.048640000000     0.946210000000     0.480070000000     0.401833   
C3       C      0.111670000000     0.055570000000     0.506200000000     0.402552   
C4       C      0.938430000000     0.011600000000     0.485880000000     0.401791   
C5       C      0.005020000000     0.517550000000     0.432350000000     0.399837   
C6       C      0.995070000000     0.548950000000     0.611210000000     0.401866   
C7       C      0.982050000000     0.443970000000     0.537160000000     0.401007   
C8       C      0.017000000000     0.621670000000     0.507180000000     0.402318   
C9       C      0.521960000000     0.042160000000     0.588010000000     0.402944   
C10      C      0.526280000000     0.016390000000     0.408500000000     0.402172   
C11      C      0.613780000000     0.028630000000     0.501950000000     0.403187   
C12      C      0.434460000000     0.029850000000     0.494450000000     0.403404   
C13      C      0.533990000000     0.976280000000     0.082290000000     0.402243   
C14      C      0.508650000000     0.006670000000     0.905280000000     0.402933   
C15      C      0.514400000000     0.081660000000     0.010660000000     0.400929   
C16      C      0.526910000000     0.901800000000     0.977760000000     0.403115   
C17      C      0.993650000000     0.515770000000     0.109890000000     0.401415   
C18      C      0.988370000000     0.558060000000     0.933210000000     0.401421   
C19      C      0.082090000000     0.532930000000     0.018510000000     0.401241   
C20      C      0.902550000000     0.540430000000     0.023720000000     0.402418   
C21      C      0.505120000000     0.403850000000     0.061520000000     0.402907   
C22      C      0.479820000000     0.584550000000     0.043200000000     0.402455   
C23      C      0.402340000000     0.482100000000     0.055670000000     0.400465   
C24      C      0.580490000000     0.506030000000     0.049490000000     0.400587   
C25      C      0.652620000000     0.492620000000     0.009330000000     0.0121243  
C26      C      0.832910000000     0.582900000000     0.042860000000     0.0143562  
C27      C      0.830220000000     0.508920000000     0.995720000000     0.0553178  
C28      C      0.790490000000     0.568080000000     0.069010000000    -0.104895   
C29      C      0.689420000000     0.526400000000     0.994890000000    -0.101393   
C30      C      0.786120000000     0.495550000000     0.019860000000    -0.113364   
C31      C      0.716170000000     0.542160000000     0.036040000000     0.0176398  
C32      C      0.761770000000     0.537130000000     0.039320000000     0.0257597  
C33      C      0.651320000000     0.528580000000     0.088120000000     0.0113603  
C34      C      0.687910000000     0.563210000000     0.073700000000    -0.101556   
C35      C      0.330210000000     0.490720000000     0.097700000000     0.0116486  
C36      C      0.151860000000     0.494730000000     0.991090000000     0.0137158  
C37      C      0.155750000000     0.566620000000     0.040650000000     0.0545658  
C38      C      0.188750000000     0.471900000000     0.019610000000    -0.103422   
C39      C      0.291900000000     0.523280000000     0.083450000000    -0.100414   
C40      C      0.193740000000     0.544210000000     0.069210000000    -0.113319   
C41      C      0.264600000000     0.502390000000     0.044730000000     0.016468   
C42      C      0.218850000000     0.507680000000     0.042040000000     0.0245541  
C43      C      0.331260000000     0.454170000000     0.020170000000     0.0120214  
C44      C      0.292200000000     0.484830000000     0.004500000000    -0.10011    
C45      C      0.493100000000     0.663130000000     0.073150000000     0.0117924  
C46      C      0.492860000000     0.829640000000     0.948840000000     0.0153802  
C47      C      0.569020000000     0.829170000000     0.988460000000     0.0549695  
C48      C      0.475320000000     0.791920000000     0.980490000000    -0.103469   
C49      C      0.528230000000     0.695190000000     0.051360000000    -0.100766   
C50      C      0.552340000000     0.790970000000     0.021130000000    -0.113086   
C51      C      0.508120000000     0.717880000000     0.009360000000     0.0169034  
C52      C      0.513690000000     0.763600000000     0.000400000000     0.0248464  
C53      C      0.454420000000     0.651890000000     0.997690000000     0.0128086  
C54      C      0.487290000000     0.685190000000     0.974700000000    -0.100699   
C55      C      0.472660000000     0.146620000000     0.045900000000     0.0107245  
C56      C      0.541840000000     0.334330000000     0.030530000000     0.0150527  
C57      C      0.502160000000     0.332280000000     0.107630000000     0.0549039  
C58      C      0.520370000000     0.288610000000     0.017280000000    -0.104068   
C59      C      0.489050000000     0.179710000000     0.083470000000    -0.101115   
C60      C      0.481780000000     0.284650000000     0.095290000000    -0.113922   
C61      C      0.520670000000     0.214700000000     0.062350000000     0.0173235  
C62      C      0.510010000000     0.260300000000     0.059400000000     0.0257751  
C63      C      0.544280000000     0.160800000000     0.000870000000     0.0118667  
C64      C      0.560690000000     0.193600000000     0.038030000000    -0.100782   
C65      C      0.501910000000     0.088800000000     0.656070000000     0.011158   
C66      C      0.538070000000     0.995910000000     0.827460000000     0.0147371  
C67      C      0.461490000000     0.034170000000     0.840710000000     0.0538786  
C68      C      0.550160000000     0.033210000000     0.793190000000    -0.104127   
C69      C      0.471630000000     0.073560000000     0.696250000000    -0.101913   
C70      C      0.472930000000     0.069910000000     0.802870000000    -0.113398   
C71      C      0.497420000000     0.040130000000     0.726280000000     0.0199228  
C72      C      0.507700000000     0.050190000000     0.770370000000     0.0246698  
C73      C      0.547520000000     0.015420000000     0.663380000000     0.0136773  
C74      C      0.516950000000     0.998870000000     0.701620000000    -0.101703   
C75      C      0.541890000000     0.047080000000     0.331680000000     0.0124641  
C76      C      0.508320000000     0.943510000000     0.156180000000     0.0138146  
C77      C      0.584340000000     0.983340000000     0.149060000000     0.0558664  
C78      C      0.499130000000     0.968790000000     0.201110000000    -0.103208   
C79      C      0.571200000000     0.027090000000     0.293520000000    -0.101517   
C80      C      0.574960000000     0.010850000000     0.192880000000    -0.113652   
C81      C      0.545780000000     0.988440000000     0.270090000000     0.017359   
C82      C      0.542230000000     0.985600000000     0.223800000000     0.0246756  
C83      C      0.502770000000     0.970190000000     0.341700000000     0.0114204  
C84      C      0.529610000000     0.950430000000     0.301640000000    -0.100666   
C85      C      0.000750000000     0.612970000000     0.870160000000     0.0130904  
C86      C      0.951150000000     0.545700000000     0.682740000000     0.0138109  
C87      C      0.033680000000     0.572110000000     0.682310000000     0.0549079  
C88      C      0.940730000000     0.581880000000     0.719130000000    -0.104262   
C89      C      0.020530000000     0.605520000000     0.822370000000    -0.101788   
C90      C      0.022010000000     0.608790000000     0.718760000000    -0.114278   
C91      C      0.986520000000     0.581440000000     0.792010000000     0.0193871  
C92      C      0.982400000000     0.592320000000     0.746950000000     0.0249194  
C93      C      0.949620000000     0.544140000000     0.860330000000     0.0116897  
C94      C      0.966140000000     0.537560000000     0.811350000000    -0.100515   
C95      C      0.046610000000     0.488500000000     0.364650000000     0.0105346  
C96      C      0.970830000000     0.538110000000     0.187640000000     0.0147575  
C97      C      0.009470000000     0.460800000000     0.172960000000     0.0536828  
C98      C      0.000870000000     0.546120000000     0.228880000000    -0.104061   
C99      C      0.031840000000     0.459210000000     0.323220000000    -0.101788   
C100     C      0.037670000000     0.467620000000     0.217210000000    -0.113331   
C101     C      0.001620000000     0.487790000000     0.292690000000     0.0192249  
C102     C      0.013840000000     0.500310000000     0.249640000000     0.024762   
C103     C      0.976270000000     0.537800000000     0.356120000000     0.0120908  
C104     C      0.960930000000     0.507640000000     0.316580000000    -0.101522   
C105     C      0.180000000000     0.056260000000     0.554710000000     0.0123637  
C106     C      0.364750000000     0.065410000000     0.464250000000     0.0145141  
C107     C      0.361740000000     0.992210000000     0.512280000000     0.0552314  
C108     C      0.325120000000     0.085490000000     0.490780000000    -0.104113   
C109     C      0.221130000000     0.026090000000     0.544610000000    -0.100584   
C110     C      0.321140000000     0.012030000000     0.538830000000    -0.113772   
C111     C      0.250050000000     0.048690000000     0.508240000000     0.0167069  
C112     C      0.295960000000     0.047380000000     0.510320000000     0.0251594  
C113     C      0.182310000000     0.090750000000     0.476340000000     0.0120859  
C114     C      0.225290000000     0.063720000000     0.465170000000    -0.100286   
C115     C      0.868640000000     0.974160000000     0.514900000000     0.0121055  
C116     C      0.686220000000     0.068670000000     0.489370000000     0.0144135  
C117     C      0.683570000000     0.990360000000     0.528770000000     0.055234   
C118     C      0.726930000000     0.053290000000     0.460980000000    -0.104533   
C119     C      0.825670000000     0.999630000000     0.529160000000    -0.100474   
C120     C      0.726370000000     0.975990000000     0.502820000000    -0.113316   
C121     C      0.799630000000     0.017350000000     0.487970000000     0.0163652  
C122     C      0.753650000000     0.017230000000     0.486830000000     0.0251789  
C123     C      0.868770000000     0.015050000000     0.439420000000     0.0120594  
C124     C      0.827320000000     0.043490000000     0.452940000000    -0.100684   
C125     C      0.087460000000     0.875130000000     0.505540000000     0.0131357  
C126     C      0.990780000000     0.697110000000     0.478870000000     0.0142741  
C127     C      0.066450000000     0.689050000000     0.520120000000     0.054833   
C128     C      0.011880000000     0.731350000000     0.445170000000    -0.105064   
C129     C      0.065240000000     0.828520000000     0.515080000000    -0.100438   
C130     C      0.085820000000     0.726790000000     0.488810000000    -0.113435   
C131     C      0.050450000000     0.804320000000     0.471470000000     0.016927   
C132     C      0.049190000000     0.757340000000     0.469120000000     0.0251407  
C133     C      0.051650000000     0.879080000000     0.428110000000     0.0126029  
C134     C      0.025870000000     0.834030000000     0.436730000000    -0.100713   
C135     C      0.928650000000     0.378830000000     0.532490000000     0.0130535  
C136     C      0.006310000000     0.188590000000     0.562490000000     0.0133604  
C137     C      0.972780000000     0.194550000000     0.482040000000     0.0552454  
C138     C      0.971470000000     0.223520000000     0.579380000000    -0.103974   
C139     C      0.935910000000     0.332110000000     0.509450000000    -0.101424   
C140     C      0.937020000000     0.228490000000     0.500490000000    -0.114272   
C141     C      0.963850000000     0.300890000000     0.539740000000     0.018584   
C142     C      0.956240000000     0.254480000000     0.540870000000     0.024706   
C143     C      0.001150000000     0.370740000000     0.576300000000     0.0113491  
C144     C      0.007430000000     0.321570000000     0.558020000000    -0.100223   
Cu1      Cu     0.022990000000     0.024890000000     0.537150000000     0.840742   
Cu2      Cu     0.027270000000     0.041950000000     0.454660000000     0.843973   
Cu3      Cu     0.040630000000     0.525050000000     0.525950000000     0.834822   
Cu4      Cu     0.959130000000     0.540380000000     0.517850000000     0.84533    
Cu5      Cu     0.523590000000     0.987200000000     0.504480000000     0.846072   
Cu6      Cu     0.524540000000     0.071410000000     0.492060000000     0.84052    
Cu7      Cu     0.561780000000     0.995610000000     0.988680000000     0.850243   
Cu8      Cu     0.479780000000     0.987880000000     0.999080000000     0.83215    
Cu9      Cu     0.990320000000     0.495350000000     0.011520000000     0.837444   
Cu10     Cu     0.994220000000     0.577990000000     0.031290000000     0.843101   
Cu11     Cu     0.492310000000     0.498810000000     0.094320000000     0.841743   
Cu12     Cu     0.490620000000     0.489330000000     0.010650000000     0.840127   
H1       H      0.710340000000     0.511290000000     0.967340000000     0.0462171  
H2       H      0.822910000000     0.606900000000     0.015020000000     0.0327752  
H3       H      0.667760000000     0.499000000000     0.105710000000     0.0306901  
H4       H      0.707820000000     0.571770000000     0.104630000000     0.0432012  
H5       H      0.772460000000     0.600180000000     0.078810000000     0.0443466  
H6       H      0.764980000000     0.473300000000     0.997680000000     0.0492245  
H7       H      0.631160000000     0.484550000000     0.979260000000     0.0359633  
H8       H      0.855040000000     0.602380000000     0.066710000000     0.0346452  
H9       H      0.671850000000     0.595410000000     0.061030000000     0.0502858  
H10      H      0.795090000000     0.473080000000     0.049260000000     0.0547798  
H11      H      0.628640000000     0.545800000000     0.113100000000     0.0354691  
H12      H      0.672980000000     0.557220000000     0.979600000000     0.0534886  
H13      H      0.800190000000     0.549280000000     0.100580000000     0.0511843  
H14      H      0.849610000000     0.476560000000     0.990300000000     0.0302707  
H15      H      0.669020000000     0.459880000000     0.020140000000     0.0274202  
H16      H      0.270910000000     0.529080000000     0.114330000000     0.0431866  
H17      H      0.167920000000     0.510630000000     0.960620000000     0.0303832  
H18      H      0.316870000000     0.421180000000     0.033000000000     0.02701    
H19      H      0.272440000000     0.465930000000     0.978540000000     0.0437738  
H20      H      0.206860000000     0.446500000000     0.998250000000     0.0442251  
H21      H      0.216410000000     0.571970000000     0.081890000000     0.0489559  
H22      H      0.351170000000     0.508400000000     0.123840000000     0.0366816  
H23      H      0.128560000000     0.467590000000     0.978340000000     0.0365745  
H24      H      0.306540000000     0.515350000000     0.986680000000     0.0540056  
H25      H      0.178580000000     0.527400000000     0.099670000000     0.051897   
H26      H      0.352950000000     0.445760000000     0.990380000000     0.0360033  
H27      H      0.306120000000     0.556920000000     0.072270000000     0.0521225  
H28      H      0.172340000000     0.451550000000     0.047160000000     0.0528156  
H29      H      0.134920000000     0.587240000000     0.064750000000     0.0296625  
H30      H      0.315170000000     0.459550000000     0.113820000000     0.0283975  
H31      H      0.538210000000     0.720840000000     0.077670000000     0.0434002  
H32      H      0.505490000000     0.812940000000     0.917160000000     0.0299571  
H33      H      0.424170000000     0.671850000000     0.008410000000     0.0268573  
H34      H      0.470170000000     0.702680000000     0.945930000000     0.0442947  
H35      H      0.449830000000     0.771310000000     0.961900000000     0.044842   
H36      H      0.581280000000     0.768310000000     0.030330000000     0.0494732  
H37      H      0.509050000000     0.644910000000     0.102380000000     0.0359985  
H38      H      0.464440000000     0.852460000000     0.938620000000     0.0358046  
H39      H      0.515060000000     0.664700000000     0.959240000000     0.0547777  
H40      H      0.540120000000     0.807280000000     0.053180000000     0.0533348  
H41      H      0.443090000000     0.625540000000     0.972600000000     0.0354028  
H42      H      0.558610000000     0.675060000000     0.041420000000     0.0516408  
H43      H      0.457170000000     0.808590000000     0.009310000000     0.0546991  
H44      H      0.592110000000     0.851700000000     0.008430000000     0.030268   
H45      H      0.464920000000     0.684500000000     0.086690000000     0.0286539  
H46      H      0.458890000000     0.195460000000     0.099580000000     0.0432242  
H47      H      0.576130000000     0.327240000000     0.044240000000     0.0292659  
H48      H      0.527600000000     0.181490000000     0.973710000000     0.0266215  
H49      H      0.584530000000     0.219460000000     0.023990000000     0.0441146  
H50      H      0.542110000000     0.270910000000     0.992020000000     0.0445702  
H51      H      0.478230000000     0.263870000000     0.127000000000     0.0490487  
H52      H      0.452140000000     0.119010000000     0.062150000000     0.0363245  
H53      H      0.546430000000     0.355570000000     0.999290000000     0.0352993  
H54      H      0.580440000000     0.173340000000     0.063320000000     0.053045   
H55      H      0.447290000000     0.289810000000     0.081260000000     0.0523625  
H56      H      0.573880000000     0.143470000000     0.985140000000     0.0362211  
H57      H      0.507390000000     0.159870000000     0.110120000000     0.0506541  
H58      H      0.488020000000     0.295780000000     0.999460000000     0.0536666  
H59      H      0.476110000000     0.351460000000     0.127310000000     0.0281934  
H60      H      0.450280000000     0.166010000000     0.022210000000     0.0295445  
H61      H      0.460770000000     0.104960000000     0.714970000000     0.0436386  
H62      H      0.524760000000     0.965460000000     0.808700000000     0.0293961  
H63      H      0.577100000000     0.033210000000     0.678760000000     0.0275993  
H64      H      0.535220000000     0.974540000000     0.724230000000     0.0456481  
H65      H      0.576010000000     0.020700000000     0.768750000000     0.0454566  
H66      H      0.441540000000     0.081280000000     0.785390000000     0.0487412  
H67      H      0.481260000000     0.109080000000     0.631530000000     0.0344796  
H68      H      0.569370000000     0.984410000000     0.844980000000     0.0371277  
H69      H      0.488660000000     0.978870000000     0.686460000000     0.0556064  
H70      H      0.487600000000     0.101090000000     0.819240000000     0.0519936  
H71      H      0.560590000000     0.985120000000     0.644230000000     0.0366324  
H72      H      0.441010000000     0.056120000000     0.682770000000     0.0512193  
H73      H      0.565920000000     0.062530000000     0.811760000000     0.0538886  
H74      H      0.442820000000     0.052870000000     0.867970000000     0.0285981  
H75      H      0.528920000000     0.111710000000     0.669530000000     0.0301468  
H76      H      0.579360000000     0.056080000000     0.270180000000     0.0431401  
H77      H      0.522050000000     0.908800000000     0.164420000000     0.0292157  
H78      H      0.469430000000     0.981810000000     0.328620000000     0.0280239  
H79      H      0.509530000000     0.923300000000     0.284480000000     0.0439474  
H80      H      0.478300000000     0.946180000000     0.223060000000     0.0443342  
H81      H      0.607750000000     0.017800000000     0.210100000000     0.0489328  
H82      H      0.561990000000     0.073590000000     0.350130000000     0.0353121  
H83      H      0.475760000000     0.937910000000     0.138200000000     0.0355633  
H84      H      0.559900000000     0.932670000000     0.315500000000     0.0528496  
H85      H      0.559960000000     0.044750000000     0.183610000000     0.052539   
H86      H      0.496320000000     0.942250000000     0.366850000000     0.0369783  
H87      H      0.603240000000     0.013480000000     0.307920000000     0.0512081  
H88      H      0.478070000000     0.999590000000     0.193560000000     0.0522648  
H89      H      0.603890000000     0.006640000000     0.126320000000     0.0304085  
H90      H      0.512160000000     0.064570000000     0.316240000000     0.0295559  
H91      H      0.029530000000     0.640100000000     0.808730000000     0.0444707  
H92      H      0.955940000000     0.511860000000     0.699950000000     0.029061   
H93      H      0.917820000000     0.564500000000     0.859230000000     0.0292325  
H94      H      0.937960000000     0.523600000000     0.790730000000     0.0448172  
H95      H      0.911430000000     0.571240000000     0.740190000000     0.0448211  
H96      H      0.052560000000     0.616930000000     0.739210000000     0.049377   
H97      H      0.027530000000     0.627450000000     0.892600000000     0.035319   
H98      H      0.921320000000     0.542100000000     0.660020000000     0.0359951  
H99      H      0.992870000000     0.510660000000     0.811330000000     0.0548596  
H100     H      0.012200000000     0.641300000000     0.701220000000     0.0541603  
H101     H      0.941100000000     0.509860000000     0.875040000000     0.0370129  
H102     H      0.051680000000     0.584270000000     0.824660000000     0.0532901  
H103     H      0.930170000000     0.614160000000     0.701630000000     0.0531335  
H104     H      0.058440000000     0.588230000000     0.658620000000     0.0296563  
H105     H      0.972960000000     0.638690000000     0.867970000000     0.0309738  
H106     H      0.062710000000     0.446950000000     0.305530000000     0.0437463  
H107     H      0.938310000000     0.523240000000     0.199580000000     0.0287841  
H108     H      0.993860000000     0.568600000000     0.342090000000     0.0265043  
H109     H      0.938030000000     0.526990000000     0.293530000000     0.0444288  
H110     H      0.984430000000     0.570120000000     0.253200000000     0.0444551  
H111     H      0.044990000000     0.433500000000     0.232890000000     0.0488771  
H112     H      0.064210000000     0.465670000000     0.389430000000     0.0356389  
H113     H      0.962800000000     0.571980000000     0.171800000000     0.0355522  
H114     H      0.940560000000     0.478640000000     0.330470000000     0.0536054  
H115     H      0.070730000000     0.483110000000     0.207920000000     0.0514894  
H116     H      0.945930000000     0.550460000000     0.374550000000     0.0363353  
H117     H      0.012890000000     0.428460000000     0.335320000000     0.0513415  
H118     H      0.032170000000     0.563770000000     0.217370000000     0.0534687  
H119     H      0.031880000000     0.444110000000     0.147360000000     0.0280058  
H120     H      0.071270000000     0.514840000000     0.352830000000     0.0302896  
H121     H      0.239650000000     0.022060000000     0.577340000000     0.0432844  
H122     H      0.351460000000     0.049420000000     0.432480000000     0.0296376  
H123     H      0.192390000000     0.125280000000     0.489400000000     0.0275479  
H124     H      0.246010000000     0.084280000000     0.441260000000     0.0439874  
H125     H      0.306800000000     0.110390000000     0.468980000000     0.0443814  
H126     H      0.299330000000     0.982900000000     0.549970000000     0.0490266  
H127     H      0.158480000000     0.038170000000     0.580090000000     0.0367883  
H128     H      0.387360000000     0.094040000000     0.453590000000     0.0359348  
H129     H      0.215530000000     0.032000000000     0.446270000000     0.0541621  
H130     H      0.333630000000     0.029350000000     0.570250000000     0.0521293  
H131     H      0.162640000000     0.096240000000     0.444510000000     0.0366711  
H132     H      0.210090000000     0.991480000000     0.532660000000     0.052203   
H133     H      0.338690000000     0.105960000000     0.519780000000     0.0529647  
H134     H      0.382320000000     0.972360000000     0.537230000000     0.0291768  
H135     H      0.191720000000     0.089050000000     0.570520000000     0.0281525  
H136     H      0.805790000000     0.977090000000     0.552050000000     0.0457489  
H137     H      0.698470000000     0.088360000000     0.519500000000     0.0322181  
H138     H      0.857270000000     0.983630000000     0.420960000000     0.0282478  
H139     H      0.807940000000     0.050060000000     0.421140000000     0.0430135  
H140     H      0.747230000000     0.084700000000     0.453890000000     0.0440499  
H141     H      0.745870000000     0.950150000000     0.522560000000     0.0488971  
H142     H      0.889170000000     0.966430000000     0.545700000000     0.0360664  
H143     H      0.665630000000     0.092620000000     0.468250000000     0.0348058  
H144     H      0.838100000000     0.077140000000     0.467520000000     0.0510485  
H145     H      0.715500000000     0.957150000000     0.471640000000     0.0540956  
H146     H      0.889560000000     0.035810000000     0.415450000000     0.0365146  
H147     H      0.835540000000     0.030030000000     0.550040000000     0.0541871  
H148     H      0.715340000000     0.038620000000     0.427950000000     0.0506967  
H149     H      0.661870000000     0.959210000000     0.531610000000     0.0300947  
H150     H      0.858600000000     0.940610000000     0.499510000000     0.0269215  
H151     H      0.088590000000     0.807900000000     0.536330000000     0.0464603  
H152     H      0.972800000000     0.716700000000     0.505980000000     0.0328379  
H153     H      0.083990000000     0.870830000000     0.410630000000     0.0290276  
H154     H      0.022910000000     0.815990000000     0.403380000000     0.0432571  
H155     H      0.984480000000     0.754180000000     0.432660000000     0.0441444  
H156     H      0.113690000000     0.745950000000     0.505560000000     0.0487927  
H157     H      0.092030000000     0.894150000000     0.538180000000     0.0348416  
H158     H      0.965190000000     0.676320000000     0.460180000000     0.0339846  
H159     H      0.991420000000     0.841950000000     0.449540000000     0.0514596  
H160     H      0.102280000000     0.709200000000     0.459490000000     0.0535305  
H161     H      0.031250000000     0.901280000000     0.405040000000     0.0350733  
H162     H      0.034620000000     0.834520000000     0.536160000000     0.0554147  
H163     H      0.026020000000     0.712430000000     0.415430000000     0.0507704  
H164     H      0.093520000000     0.663040000000     0.525420000000     0.0300882  
H165     H      0.121650000000     0.868490000000     0.491320000000     0.0266686  
H166     H      0.901880000000     0.317300000000     0.503120000000     0.0435272  
H167     H      0.038590000000     0.207140000000     0.556390000000     0.0295165  
H168     H      0.984560000000     0.368360000000     0.610270000000     0.0278505  
H169     H      0.023390000000     0.300590000000     0.585150000000     0.0444469  
H170     H      0.984460000000     0.242660000000     0.609380000000     0.0442608  
H171     H      0.925120000000     0.250970000000     0.472260000000     0.0484078  
H172     H      0.909860000000     0.401460000000     0.508440000000     0.0358858  
H173     H      0.012780000000     0.163070000000     0.590040000000     0.0357888  
H174     H      0.031930000000     0.322810000000     0.529320000000     0.0544165  
H175     H      0.907150000000     0.208510000000     0.512180000000     0.0521508  
H176     H      0.034830000000     0.386690000000     0.581740000000     0.0369762  
H177     H      0.953350000000     0.336930000000     0.476200000000     0.0530196  
H178     H      0.941560000000     0.204140000000     0.591910000000     0.0519353  
H179     H      0.955560000000     0.172190000000     0.456530000000     0.0274009  
H180     H      0.907380000000     0.373850000000     0.563400000000     0.0291169  
N1       N      0.856450000000     0.542750000000     0.022820000000    -0.177716   
N2       N      0.626330000000     0.511060000000     0.048080000000    -0.174282   
N3       N      0.128280000000     0.531010000000     0.017410000000    -0.177345   
N4       N      0.356510000000     0.476510000000     0.057430000000    -0.174223   
N5       N      0.530060000000     0.855370000000     0.970640000000    -0.17819    
N6       N      0.475350000000     0.631180000000     0.038420000000    -0.17505    
N7       N      0.514860000000     0.357990000000     0.065960000000    -0.178263   
N8       N      0.511180000000     0.127810000000     0.019740000000    -0.174474   
N9       N      0.503050000000     0.012760000000     0.859380000000    -0.177891   
N10      N      0.523030000000     0.048370000000     0.634110000000    -0.17498    
N11      N      0.541430000000     0.968600000000     0.127770000000    -0.178105   
N12      N      0.526000000000     0.010140000000     0.362320000000    -0.174773   
N13      N      0.992760000000     0.557110000000     0.657140000000    -0.177449   
N14      N      0.982720000000     0.569430000000     0.888380000000    -0.174128   
N15      N      0.992350000000     0.505490000000     0.155440000000    -0.177654   
N16      N      0.007890000000     0.512430000000     0.386030000000    -0.174044   
N17      N      0.388450000000     0.029760000000     0.491300000000    -0.178437   
N18      N      0.156110000000     0.066810000000     0.511880000000    -0.174782   
N19      N      0.659820000000     0.028480000000     0.505140000000    -0.178002   
N20      N      0.893770000000     0.001050000000     0.480610000000    -0.174765   
N21      N      0.025550000000     0.667520000000     0.500250000000    -0.177778   
N22      N      0.061340000000     0.901720000000     0.471870000000    -0.174985   
N23      N      0.992100000000     0.166200000000     0.519370000000    -0.177947   
N24      N      0.972270000000     0.398750000000     0.546110000000    -0.174223   
O1       O      0.006360000000     0.092720000000     0.545140000000    -0.398091   
O2       O      0.042090000000     0.959600000000     0.521250000000    -0.399119   
O3       O      0.088690000000     0.042320000000     0.540810000000    -0.402781   
O4       O      0.957150000000     0.008120000000     0.525280000000    -0.398694   
O5       O      0.961200000000     0.025250000000     0.451240000000    -0.401738   
O6       O      0.093290000000     0.058200000000     0.466540000000    -0.3978     
O7       O      0.043620000000     0.974240000000     0.446520000000    -0.399533   
O8       O      0.009120000000     0.107280000000     0.470460000000    -0.399325   
O9       O      0.039950000000     0.511000000000     0.457530000000    -0.396006   
O10      O      0.033520000000     0.540990000000     0.592790000000    -0.397156   
O11      O      0.022910000000     0.458480000000     0.539850000000    -0.395788   
O12      O      0.049870000000     0.593410000000     0.513070000000    -0.396996   
O13      O      0.976020000000     0.607460000000     0.508360000000    -0.40051    
O14      O      0.949980000000     0.471720000000     0.526720000000    -0.401426   
O15      O      0.958930000000     0.549050000000     0.586970000000    -0.398104   
O16      O      0.967550000000     0.530410000000     0.450140000000    -0.401271   
O17      O      0.525100000000     0.001190000000     0.571900000000    -0.402142   
O18      O      0.522320000000     0.981520000000     0.435230000000    -0.399108   
O19      O      0.591960000000     0.990480000000     0.504560000000    -0.400189   
O20      O      0.455310000000     0.992400000000     0.504520000000    -0.39952    
O21      O      0.456430000000     0.067200000000     0.486830000000    -0.400717   
O22      O      0.592740000000     0.067050000000     0.497090000000    -0.399434   
O23      O      0.529770000000     0.057330000000     0.424690000000    -0.401379   
O24      O      0.519010000000     0.077160000000     0.561290000000    -0.397572   
O25      O      0.567140000000     0.988260000000     0.056850000000    -0.402802   
O26      O      0.548570000000     0.001750000000     0.921350000000    -0.403349   
O27      O      0.552030000000     0.064570000000     0.997020000000    -0.399738   
O28      O      0.562990000000     0.925910000000     0.981930000000    -0.398188   
O29      O      0.487930000000     0.920740000000     0.981100000000    -0.398722   
O30      O      0.479720000000     0.055730000000     0.015920000000    -0.399227   
O31      O      0.474150000000     0.005040000000     0.931770000000    -0.394163   
O32      O      0.494240000000     0.971650000000     0.065340000000    -0.396368   
O33      O      0.995240000000     0.483220000000     0.080130000000    -0.394454   
O34      O      0.984880000000     0.515760000000     0.945550000000    -0.397732   
O35      O      0.058790000000     0.497390000000     0.007180000000    -0.398358   
O36      O      0.922320000000     0.501740000000     0.016330000000    -0.398236   
O37      O      0.925670000000     0.577220000000     0.030720000000    -0.398859   
O38      O      0.062380000000     0.570310000000     0.030990000000    -0.397965   
O39      O      0.995210000000     0.589980000000     0.962800000000    -0.397836   
O40      O      0.992210000000     0.558100000000     0.097320000000    -0.401924   
O41      O      0.499100000000     0.428810000000     0.097250000000    -0.396402   
O42      O      0.485980000000     0.567390000000     0.083040000000    -0.400928   
O43      O      0.424160000000     0.491820000000     0.092260000000    -0.399477   
O44      O      0.560130000000     0.506110000000     0.088140000000    -0.399086   
O45      O      0.558290000000     0.500580000000     0.012250000000    -0.398696   
O46      O      0.423200000000     0.477790000000     0.017500000000    -0.398133   
O47      O      0.478630000000     0.558440000000     0.007830000000    -0.399268   
O48      O      0.503380000000     0.421770000000     0.021590000000    -0.402078   
S1       S      0.819820000000     0.529970000000     0.945700000000    -0.0348572  
S2       S      0.176200000000     0.602230000000     0.003480000000    -0.0291927  
S3       S      0.598140000000     0.807750000000     0.946830000000    -0.0293842  
S4       S      0.545660000000     0.326570000000     0.140510000000    -0.0279896  
S5       S      0.428220000000     0.994500000000     0.821340000000    -0.0279425  
S6       S      0.615970000000     0.938940000000     0.159160000000    -0.0315346  
S7       S      0.058190000000     0.527880000000     0.705180000000    -0.026727   
S8       S      0.967700000000     0.426040000000     0.181890000000    -0.0273581  
S9       S      0.345350000000     0.956250000000     0.473400000000    -0.0293467  
S10      S      0.695920000000     0.005850000000     0.580300000000    -0.0340337  
S11      S      0.054520000000     0.710090000000     0.569770000000    -0.0343322  
S12      S      0.012660000000     0.221720000000     0.455510000000    -0.0265732  


