data_structure

_audit_creation_method RASPA-1.0
_audit_creation_date 2023-6-4
_audit_author_name 'Poobodin Mano'

_cell_length_a    19.7921
_cell_length_b    20.8409
_cell_length_c    27.523
_cell_angle_alpha 89.9989
_cell_angle_beta  89.9989
_cell_angle_gamma 94.771
_cell_volume      11313.5

_symmetry_cell_setting          triclinic
_symmetry_space_group_name_Hall 'P 1'
_symmetry_space_group_name_H-M  'P 1'
_symmetry_Int_Tables_number     1

_symmetry_equiv_pos_as_xyz 'x,y,z'

loop_
_atom_site_label
_atom_site_type_symbol
_atom_site_fract_x
_atom_site_fract_y
_atom_site_fract_z
_atom_site_charge
C1       C      0.135750000000     0.827180000000     0.049890000000     0.40245    
C2       C      0.971460000000     0.017850000000     0.055160000000     0.398514   
C3       C      0.160770000000     0.005570000000     0.068770000000     0.404413   
C4       C      0.950390000000     0.836530000000     0.036800000000     0.405009   
C5       C      0.073630000000     0.963390000000     0.538280000000     0.39865    
C6       C      0.879370000000     0.126410000000     0.547900000000     0.397897   
C7       C      0.070030000000     0.144410000000     0.534040000000     0.403591   
C8       C      0.885670000000     0.945310000000     0.551730000000     0.405481   
C9       C      0.540490000000     0.389510000000     0.953190000000     0.464453   
C10      C      0.552280000000     0.474310000000     0.126130000000     0.470692   
C11      C      0.651240000000     0.359480000000     0.056200000000     0.446409   
C12      C      0.455100000000     0.498050000000     0.022940000000     0.460602   
C13      C      0.486520000000     0.566690000000     0.450290000000     0.476344   
C14      C      0.463400000000     0.528620000000     0.632400000000     0.474443   
C15      C      0.569670000000     0.471140000000     0.542630000000     0.465224   
C16      C      0.379010000000     0.621420000000     0.544100000000     0.470724   
C17      C      0.473950000000     0.341340000000     0.883800000000     0.0152717  
C18      C      0.499210000000     0.555410000000     0.716590000000     0.0196817  
C19      C      0.415810000000     0.458560000000     0.698660000000     0.0607013  
C20      C      0.531690000000     0.513600000000     0.754270000000    -0.105753   
C21      C      0.445310000000     0.387920000000     0.847000000000    -0.0992852  
C22      C      0.410570000000     0.456650000000     0.754570000000    -0.116667   
C23      C      0.498770000000     0.429380000000     0.817620000000     0.0150085  
C24      C      0.480910000000     0.463820000000     0.777630000000     0.0253698  
C25      C      0.590970000000     0.389170000000     0.871240000000     0.0189351  
C26      C      0.569580000000     0.443590000000     0.839490000000    -0.0991942  
C27      C      0.489750000000     0.473770000000     0.203380000000     0.0158859  
C28      C      0.533850000000     0.633840000000     0.381610000000     0.016044   
C29      C      0.436330000000     0.546910000000     0.369360000000     0.0602786  
C30      C      0.569000000000     0.613330000000     0.334560000000    -0.105643   
C31      C      0.513660000000     0.463330000000     0.255020000000    -0.102241   
C32      C      0.449370000000     0.563040000000     0.315790000000    -0.118426   
C33      C      0.551110000000     0.524800000000     0.272710000000     0.0170765  
C34      C      0.524440000000     0.564670000000     0.305490000000     0.0260987  
C35      C      0.592680000000     0.553410000000     0.189430000000     0.0142889  
C36      C      0.613620000000     0.545140000000     0.243020000000    -0.102735   
C37      C      0.165550000000     0.909200000000     0.578490000000     0.0116024  
C38      C      0.261010000000     0.644110000000     0.525510000000     0.0181214  
C39      C      0.343970000000     0.728500000000     0.565570000000     0.0625684  
C40      C      0.225040000000     0.702500000000     0.507610000000    -0.105924   
C41      C      0.161200000000     0.837640000000     0.590970000000    -0.0994211  
C42      C      0.279280000000     0.755730000000     0.584880000000    -0.11699    
C43      C      0.176790000000     0.798710000000     0.546290000000     0.014656   
C44      C      0.224150000000     0.754390000000     0.546400000000     0.0253364  
C45      C      0.134680000000     0.883690000000     0.491590000000     0.0100652  
C46      C      0.133200000000     0.810910000000     0.502260000000    -0.0994797  
C47      C      0.606070000000     0.682640000000     0.609730000000    -0.000285931
C48      C      0.786560000000     0.883510000000     0.516780000000     0.0116898  
C49      C      0.828490000000     0.849790000000     0.597770000000     0.0570944  
C50      C      0.716950000000     0.892930000000     0.538600000000    -0.10341    
C51      C      0.662720000000     0.737520000000     0.614510000000    -0.0901849  
C52      C      0.758460000000     0.856210000000     0.620490000000    -0.115736   
C53      C      0.659200000000     0.792850000000     0.578250000000     0.0119079  
C54      C      0.704740000000     0.846130000000     0.580850000000     0.0221215  
C55      C      0.558070000000     0.729270000000     0.539800000000    -0.00708653 
C56      C      0.613710000000     0.783170000000     0.533810000000    -0.0867496  
C57      C      0.807050000000     0.194640000000     0.596400000000     0.0113477  
C58      C      0.646820000000     0.411660000000     0.495900000000     0.0140682  
C59      C      0.672580000000     0.435450000000     0.582260000000     0.0585346  
C60      C      0.675090000000     0.345510000000     0.498330000000    -0.10192    
C61      C      0.796940000000     0.266590000000     0.590580000000    -0.0994173  
C62      C      0.701340000000     0.369720000000     0.590030000000    -0.114007   
C63      C      0.756430000000     0.281820000000     0.545240000000     0.0145465  
C64      C      0.716820000000     0.333460000000     0.543620000000     0.0207778  
C65      C      0.782690000000     0.174320000000     0.508660000000     0.012154   
C66      C      0.773550000000     0.245400000000     0.499260000000    -0.0995741  
C67      C      0.173990000000     0.204430000000     0.564940000000     0.0119948  
C68      C      0.307810000000     0.433720000000     0.491580000000     0.00145653 
C69      C      0.401770000000     0.367710000000     0.506600000000     0.00535304 
C70      C      0.272430000000     0.370650000000     0.469990000000    -0.0933895  
C71      C      0.242420000000     0.206520000000     0.538440000000    -0.101973   
C72      C      0.356980000000     0.308030000000     0.521360000000    -0.092362   
C73      C      0.242690000000     0.256690000000     0.498510000000     0.0194987  
C74      C      0.287440000000     0.310050000000     0.498020000000     0.014729   
C75      C      0.117290000000     0.239970000000     0.488330000000     0.0132904  
C76      C      0.185450000000     0.245290000000     0.462060000000    -0.102057   
C77      C      0.332700000000     0.514380000000     0.028660000000     0.0156956  
C78      C      0.236330000000     0.785190000000     0.014940000000     0.0120224  
C79      C      0.177670000000     0.728250000000     0.087050000000     0.0555265  
C80      C      0.254320000000     0.720810000000     0.994660000000    -0.103331   
C81      C      0.303220000000     0.566090000000     0.059960000000    -0.101838   
C82      C      0.201250000000     0.663830000000     0.068400000000    -0.114529   
C83      C      0.312120000000     0.631260000000     0.034860000000     0.0159152  
C84      C      0.262300000000     0.673120000000     0.035250000000     0.0220201  
C85      C      0.412650000000     0.597120000000     0.987860000000     0.0156468  
C86      C      0.383940000000     0.650870000000     0.017420000000    -0.101754   
C87      C      0.887400000000     0.736510000000     0.064630000000     0.0126932  
C88      C      0.644310000000     0.596400000000     0.986400000000     0.00515822 
C89      C      0.717230000000     0.544970000000     0.044320000000    -0.0020073  
C90      C      0.704940000000     0.636220000000     0.963930000000    -0.0945041  
C91      C      0.811880000000     0.716360000000     0.068460000000    -0.103132   
C92      C      0.780930000000     0.582250000000     0.024440000000    -0.0899267  
C93      C      0.783040000000     0.704040000000     0.018270000000     0.0219025  
C94      C      0.760820000000     0.644550000000     0.001710000000     0.0132203  
C95      C      0.868440000000     0.781410000000     0.980180000000     0.0127427  
C96      C      0.792410000000     0.761480000000     0.984640000000    -0.103738   
C97      C      0.703860000000     0.275550000000     0.103870000000     0.0132724  
C98      C      0.909480000000     0.097400000000     0.010650000000     0.0143995  
C99      C      0.901620000000     0.088170000000     0.102980000000     0.0580928  
C100     C      0.888640000000     0.166000000000     0.018240000000    -0.103968   
C101     C      0.723870000000     0.209580000000     0.086840000000    -0.0997547  
C102     C      0.833290000000     0.118060000000     0.096870000000    -0.114427   
C103     C      0.788430000000     0.215300000000     0.056220000000     0.0145893  
C104     C      0.834400000000     0.169110000000     0.057190000000     0.0234654  
C105     C      0.767510000000     0.331140000000     0.035420000000     0.0147756  
C106     C      0.790840000000     0.267130000000     0.016950000000    -0.101209   
C107     C      0.265710000000     0.061880000000     0.037420000000     0.0135424  
C108     C      0.385720000000     0.314540000000     0.083740000000     0.00880066 
C109     C      0.474890000000     0.251320000000     0.051910000000     0.001163   
C110     C      0.356750000000     0.259540000000     0.116080000000    -0.0942936  
C111     C      0.335020000000     0.089260000000     0.056590000000    -0.103353   
C112     C      0.448590000000     0.191430000000     0.080660000000    -0.0906974  
C113     C      0.326790000000     0.144930000000     0.091040000000     0.019475   
C114     C      0.374260000000     0.195830000000     0.094420000000     0.0127126  
C115     C      0.229700000000     0.074310000000     0.125650000000     0.0145864  
C116     C      0.262090000000     0.143040000000     0.120870000000    -0.103283   
Cu1      Cu     0.061470000000     0.930540000000     0.008430000000     0.841834   
Cu2      Cu     0.046930000000     0.914910000000     0.096910000000     0.843921   
Cu3      Cu     0.970460000000     0.043290000000     0.498460000000     0.841074   
Cu4      Cu     0.983930000000     0.047720000000     0.587580000000     0.83798    
Cu5      Cu     0.598320000000     0.477080000000     0.027210000000     1.15296    
Cu6      Cu     0.508210000000     0.380090000000     0.053160000000     1.17302    
Cu7      Cu     0.523190000000     0.599780000000     0.550710000000     1.17939    
Cu8      Cu     0.428070000000     0.495870000000     0.532000000000     1.19166    
H1       H      0.411700000000     0.357090000000     0.822860000000     0.0431072  
H2       H      0.464830000000     0.586840000000     0.735480000000     0.0242613  
H3       H      0.599680000000     0.347380000000     0.847520000000     0.0238807  
H4       H      0.608910000000     0.451270000000     0.810830000000     0.0426831  
H5       H      0.555590000000     0.546430000000     0.782360000000     0.0428625  
H6       H      0.381930000000     0.497230000000     0.767120000000     0.0517219  
H7       H      0.434590000000     0.327010000000     0.911450000000     0.034334   
H8       H      0.539950000000     0.587560000000     0.699300000000     0.0320133  
H9       H      0.569980000000     0.488160000000     0.861750000000     0.0527665  
H10      H      0.379760000000     0.411980000000     0.764590000000     0.048549   
H11      H      0.639710000000     0.404340000000     0.889670000000     0.0328175  
H12      H      0.363860000000     0.460210000000     0.683530000000     0.0233739  
H13      H      0.413720000000     0.420850000000     0.866980000000     0.0500609  
H14      H      0.571900000000     0.488300000000     0.736010000000     0.053878   
H15      H      0.485780000000     0.297040000000     0.864050000000     0.0245471  
H16      H      0.406560000000     0.359490000000     0.641030000000     0.0342443  
H17      H      0.471080000000     0.445280000000     0.278880000000     0.0429299  
H18      H      0.573370000000     0.651840000000     0.408120000000     0.0338592  
H19      H      0.565390000000     0.597780000000     0.186370000000     0.0278272  
H20      H      0.640750000000     0.590680000000     0.255960000000     0.0420385  
H21      H      0.616380000000     0.591610000000     0.345000000000     0.0487448  
H22      H      0.417260000000     0.529870000000     0.292260000000     0.0476605  
H23      H      0.463470000000     0.427930000000     0.190040000000     0.0352533  
H24      H      0.503470000000     0.674870000000     0.372820000000     0.0258301  
H25      H      0.649640000000     0.507070000000     0.245340000000     0.0482294  
H26      H      0.433470000000     0.611890000000     0.307660000000     0.0545236  
H27      H      0.639320000000     0.560460000000     0.166850000000     0.0303181  
H28      H      0.437400000000     0.494020000000     0.374450000000     0.024167   
H29      H      0.549230000000     0.424730000000     0.254680000000     0.0512284  
H30      H      0.582820000000     0.656630000000     0.311950000000     0.0432193  
H31      H      0.451600000000     0.510060000000     0.203830000000     0.0246753  
H32      H      0.306780000000     0.516730000000     0.375630000000     0.0271423  
H33      H      0.193940000000     0.830030000000     0.622740000000     0.0421895  
H34      H      0.230140000000     0.619060000000     0.554660000000     0.0286492  
H35      H      0.185780000000     0.900230000000     0.477340000000     0.0290391  
H36      H      0.150370000000     0.787150000000     0.468910000000     0.0427036  
H37      H      0.172410000000     0.684820000000     0.497410000000     0.0438569  
H38      H      0.259950000000     0.726810000000     0.616640000000     0.0524373  
H39      H      0.152110000000     0.936760000000     0.611160000000     0.0357823  
H40      H      0.263760000000     0.609430000000     0.494970000000     0.0321936  
H41      H      0.080180000000     0.791600000000     0.509750000000     0.0497339  
H42      H      0.293810000000     0.805690000000     0.597410000000     0.05007    
H43      H      0.097090000000     0.891370000000     0.462600000000     0.0358796  
H44      H      0.380250000000     0.727010000000     0.596370000000     0.024011   
H45      H      0.108560000000     0.822490000000     0.602790000000     0.0516684  
H46      H      0.251290000000     0.722970000000     0.474700000000     0.0522564  
H47      H      0.219080000000     0.924920000000     0.569160000000     0.0272101  
H48      H      0.403350000000     0.746490000000     0.481390000000     0.0389967  
H49      H      0.659940000000     0.756050000000     0.652230000000     0.0397243  
H50      H      0.786450000000     0.833490000000     0.502580000000     0.0278045  
H51      H      0.517830000000     0.745310000000     0.564170000000     0.0342177  
H52      H      0.587750000000     0.827440000000     0.526400000000     0.0400634  
H53      H      0.678730000000     0.888600000000     0.509240000000     0.0427569  
H54      H      0.750780000000     0.822880000000     0.651670000000     0.0485295  
H55      H      0.624740000000     0.637840000000     0.624570000000     0.0273957  
H56      H      0.795190000000     0.916970000000     0.485510000000     0.0355611  
H57      H      0.645320000000     0.772350000000     0.501890000000     0.0471449  
H58      H      0.756840000000     0.905650000000     0.635410000000     0.0589462  
H59      H      0.534730000000     0.718530000000     0.503770000000     0.0308682  
H60      H      0.827900000000     0.799400000000     0.584230000000     0.0184008  
H61      H      0.712310000000     0.716840000000     0.609700000000     0.0465466  
H62      H      0.716940000000     0.943000000000     0.552590000000     0.0523555  
H63      H      0.561370000000     0.693670000000     0.631870000000     0.0276896  
H64      H      0.952260000000     0.836030000000     0.624480000000     0.0350667  
H65      H      0.771860000000     0.280560000000     0.624540000000     0.0422529  
H66      H      0.688340000000     0.447600000000     0.484060000000     0.0262733  
H67      H      0.732080000000     0.149360000000     0.516880000000     0.025838   
H68      H      0.733380000000     0.245290000000     0.471250000000     0.0413731  
H69      H      0.706500000000     0.342700000000     0.465100000000     0.0421728  
H70      H      0.748300000000     0.379750000000     0.611810000000     0.0474059  
H71      H      0.844470000000     0.189120000000     0.625910000000     0.0357389  
H72      H      0.606920000000     0.411080000000     0.467340000000     0.0233759  
H73      H      0.821060000000     0.268910000000     0.483530000000     0.0508678  
H74      H      0.664660000000     0.337840000000     0.611530000000     0.0552973  
H75      H      0.801130000000     0.152720000000     0.474730000000     0.035277   
H76      H      0.715260000000     0.470870000000     0.571690000000     0.021431   
H77      H      0.847380000000     0.294210000000     0.588530000000     0.0502935  
H78      H      0.632500000000     0.307420000000     0.496260000000     0.0472061  
H79      H      0.758060000000     0.169270000000     0.608100000000     0.0273236  
H80      H      0.657940000000     0.525600000000     0.646090000000     0.0355991  
H81      H      0.283390000000     0.215900000000     0.565590000000     0.0430754  
H82      H      0.323230000000     0.467140000000     0.461530000000     0.0288171  
H83      H      0.108250000000     0.288370000000     0.502770000000     0.0263186  
H84      H      0.185570000000     0.282260000000     0.433080000000     0.0420831  
H85      H      0.289340000000     0.365290000000     0.431790000000     0.0420094  
H86      H      0.380820000000     0.264290000000     0.509180000000     0.0395147  
H87      H      0.172330000000     0.165660000000     0.592800000000     0.0346681  
H88      H      0.270840000000     0.457530000000     0.514320000000     0.0311651  
H89      H      0.191510000000     0.198920000000     0.443230000000     0.0525375  
H90      H      0.351840000000     0.307290000000     0.561590000000     0.0471129  
H91      H      0.076090000000     0.226140000000     0.461940000000     0.0341978  
H92      H      0.409990000000     0.368660000000     0.466520000000     0.0260498  
H93      H      0.248730000000     0.158680000000     0.521960000000     0.0510583  
H94      H      0.217090000000     0.376360000000     0.469520000000     0.0420942  
H95      H      0.170090000000     0.251110000000     0.583930000000     0.0298431  
H96      H      0.520580000000     0.337980000000     0.501540000000     0.00888154 
H97      H      0.249080000000     0.549570000000     0.065890000000     0.0422244  
H98      H      0.280860000000     0.807310000000     0.035370000000     0.026485   
H99      H      0.384920000000     0.592680000000     0.952710000000     0.0247627  
H100     H      0.389400000000     0.695880000000     0.996060000000     0.042221   
H101     H      0.299000000000     0.729220000000     0.970740000000     0.0429517  
H102     H      0.212620000000     0.635570000000     0.101210000000     0.047283   
H103     H      0.328930000000     0.468340000000     0.049240000000     0.0343419  
H104     H      0.227860000000     0.817760000000     0.983920000000     0.0350997  
H105     H      0.416310000000     0.660070000000     0.050100000000     0.0518909  
H106     H      0.159800000000     0.636530000000     0.047870000000     0.0543314  
H107     H      0.466840000000     0.611060000000     0.979530000000     0.0325819  
H108     H      0.213430000000     0.746750000000     0.115970000000     0.0218264  
H109     H      0.329220000000     0.569250000000     0.095780000000     0.0501224  
H110     H      0.212230000000     0.701190000000     0.970780000000     0.0528647  
H111     H      0.300960000000     0.506880000000     0.995440000000     0.0261575  
H112     H      0.096310000000     0.734480000000     0.160990000000     0.0340763  
H113     H      0.802210000000     0.675220000000     0.093760000000     0.0430602  
H114     H      0.620920000000     0.623910000000     0.015750000000     0.0265307  
H115     H      0.892900000000     0.743670000000     0.959580000000     0.0299523  
H116     H      0.772720000000     0.751920000000     0.947410000000     0.0428443  
H117     H      0.686290000000     0.682240000000     0.951630000000     0.0400792  
H118     H      0.820360000000     0.589360000000     0.052960000000     0.0393236  
H119     H      0.906880000000     0.750230000000     0.101390000000     0.0362815  
H120     H      0.605660000000     0.585190000000     0.957730000000     0.0253819  
H121     H      0.766070000000     0.801960000000     0.000030000000     0.0499796  
H122     H      0.802980000000     0.553340000000     0.995380000000     0.0477031  
H123     H      0.874940000000     0.826800000000     0.958790000000     0.0346302  
H124     H      0.697040000000     0.572540000000     0.074930000000     0.0310586  
H125     H      0.786460000000     0.756720000000     0.084930000000     0.0515231  
H126     H      0.723650000000     0.610830000000     0.931720000000     0.0476843  
H127     H      0.913900000000     0.694160000000     0.052770000000     0.0276938  
H128     H      0.738000000000     0.470390000000     0.116080000000     0.0105455  
H129     H      0.727110000000     0.179360000000     0.119630000000     0.0412913  
H130     H      0.866330000000     0.067300000000     0.994260000000     0.0289138  
H131     H      0.807910000000     0.353630000000     0.059560000000     0.0242354  
H132     H      0.842950000000     0.278550000000     0.002790000000     0.0423637  
H133     H      0.870100000000     0.181490000000     0.982380000000     0.0430493  
H134     H      0.793320000000     0.079250000000     0.087840000000     0.0512852  
H135     H      0.654280000000     0.270390000000     0.123040000000     0.0236647  
H136     H      0.951600000000     0.099510000000     0.983790000000     0.0350636  
H137     H      0.757850000000     0.249390000000     0.986270000000     0.0482573  
H138     H      0.820910000000     0.138540000000     0.132700000000     0.0490148  
H139     H      0.761760000000     0.363230000000     0.003620000000     0.024902   
H140     H      0.892710000000     0.046890000000     0.128460000000     0.0261984  
H141     H      0.682540000000     0.186010000000     0.064220000000     0.0475569  
H142     H      0.933780000000     0.198430000000     0.028500000000     0.0531249  
H143     H      0.742100000000     0.294640000000     0.130980000000     0.0243885  
H144     H      0.015220000000     0.112540000000     0.149020000000     0.0397303  
H145     H      0.360430000000     0.051050000000     0.075870000000     0.0488914  
H146     H      0.359920000000     0.313400000000     0.047770000000     0.0262607  
H147     H      0.264210000000     0.044660000000     0.146160000000     0.0294635  
H148     H      0.272980000000     0.161900000000     0.158110000000     0.0431406  
H149     H      0.301410000000     0.263960000000     0.118850000000     0.0406479  
H150     H      0.458040000000     0.147870000000     0.059500000000     0.0381879  
H151     H      0.244560000000     0.097750000000     0.013000000000     0.0324983  
H152     H      0.377780000000     0.360980000000     0.101740000000     0.0266159  
H153     H      0.225450000000     0.173090000000     0.102960000000     0.0508496  
H154     H      0.478010000000     0.189130000000     0.114950000000     0.0464768  
H155     H      0.182010000000     0.075310000000     0.146960000000     0.0331771  
H156     H      0.451280000000     0.249980000000     0.015190000000     0.0289145  
H157     H      0.365680000000     0.105080000000     0.024290000000     0.0435213  
H158     H      0.378880000000     0.264800000000     0.153140000000     0.0480876  
H159     H      0.272650000000     0.018390000000     0.015090000000     0.0312305  
H160     H      0.579000000000     0.239870000000     0.997620000000     0.0109649  
N1       N      0.459440000000     0.514940000000     0.681050000000    -0.192037   
N2       N      0.536360000000     0.371060000000     0.905620000000    -0.18815    
N3       N      0.487540000000     0.580840000000     0.401670000000    -0.192076   
N4       N      0.547310000000     0.497950000000     0.172200000000    -0.188212   
N5       N      0.329280000000     0.663370000000     0.544880000000    -0.193269   
N6       N      0.122120000000     0.920180000000     0.536220000000    -0.173867   
N7       N      0.838210000000     0.893850000000     0.555330000000    -0.179412   
N8       N      0.586260000000     0.671810000000     0.558990000000    -0.231553   
N9       N      0.621540000000     0.431610000000     0.543170000000    -0.191017   
N10      N      0.827750000000     0.166400000000     0.550330000000    -0.173689   
N11      N      0.367090000000     0.423440000000     0.521980000000    -0.236354   
N12      N      0.118360000000     0.194530000000     0.529370000000    -0.175628   
N13      N      0.177560000000     0.777930000000     0.048220000000    -0.177426   
N14      N      0.402700000000     0.535380000000     0.014060000000    -0.185758   
N15      N      0.666440000000     0.536160000000     0.005600000000    -0.236763   
N16      N      0.900510000000     0.788680000000     0.028550000000    -0.175842   
N17      N      0.929040000000     0.066770000000     0.056330000000    -0.178278   
N18      N      0.703910000000     0.321110000000     0.063040000000    -0.186495   
N19      N      0.458160000000     0.309150000000     0.077840000000    -0.240579   
N20      N      0.217150000000     0.046020000000     0.077150000000    -0.177049   
O1       O      0.123110000000     0.857330000000     0.010680000000    -0.398996   
O2       O      0.998310000000     0.002410000000     0.014750000000    -0.398329   
O3       O      0.142630000000     0.992290000000     0.024930000000    -0.402779   
O4       O      0.979680000000     0.866180000000     0.000690000000    -0.40219    
O5       O      0.969200000000     0.849630000000     0.080490000000    -0.403859   
O6       O      0.127160000000     0.980560000000     0.104870000000    -0.404464   
O7       O      0.984260000000     0.987770000000     0.094440000000    -0.39813    
O8       O      0.110510000000     0.843630000000     0.090550000000    -0.397117   
O9       O      0.045280000000     0.981320000000     0.499090000000    -0.396926   
O10      O      0.896310000000     0.104080000000     0.506610000000    -0.399224   
O11      O      0.040160000000     0.120360000000     0.496050000000    -0.401573   
O12      O      0.901430000000     0.967910000000     0.509530000000    -0.404014   
O13      O      0.912490000000     0.971790000000     0.589940000000    -0.396538   
O14      O      0.055530000000     0.121500000000     0.576360000000    -0.400957   
O15      O      0.909660000000     0.110410000000     0.586870000000    -0.3959     
O16      O      0.056540000000     0.985460000000     0.579610000000    -0.399171   
O17      O      0.588280000000     0.429980000000     0.966730000000    -0.480058   
O18      O      0.586730000000     0.505880000000     0.093870000000    -0.471344   
O19      O      0.661920000000     0.421060000000     0.052380000000    -0.487587   
O20      O      0.516010000000     0.519390000000     0.013630000000    -0.469751   
O21      O      0.442820000000     0.441820000000     0.040610000000    -0.46911    
O22      O      0.589660000000     0.334660000000     0.052300000000    -0.48899    
O23      O      0.520240000000     0.421180000000     0.115150000000    -0.488388   
O24      O      0.496750000000     0.367080000000     0.983820000000    -0.471539   
O25      O      0.521850000000     0.601990000000     0.480000000000    -0.484278   
O26      O      0.504900000000     0.573950000000     0.617140000000    -0.480392   
O27      O      0.583460000000     0.531120000000     0.550060000000    -0.474285   
O28      O      0.439640000000     0.641910000000     0.554180000000    -0.484934   
O29      O      0.365000000000     0.562590000000     0.532980000000    -0.476471   
O30      O      0.508500000000     0.448720000000     0.533700000000    -0.492137   
O31      O      0.427190000000     0.494410000000     0.602420000000    -0.479342   
O32      O      0.447040000000     0.520130000000     0.465850000000    -0.488624   
S1       S      0.447760000000     0.385650000000     0.677160000000    -0.0465411  
S2       S      0.353110000000     0.567690000000     0.385300000000    -0.0527196  
S3       S      0.383760000000     0.781120000000     0.520550000000    -0.060431   
S4       S      0.893910000000     0.857360000000     0.643080000000    -0.0465848  
S5       S      0.639270000000     0.461510000000     0.639070000000    -0.0526356  
S6       S      0.483430000000     0.370670000000     0.533600000000     0.0763556  
S7       S      0.095770000000     0.710370000000     0.114660000000    -0.047865   
S8       S      0.732660000000     0.466480000000     0.066500000000     0.0735476  
S9       S      0.962690000000     0.144420000000     0.131200000000    -0.0583263  
S10      S      0.565300000000     0.256750000000     0.044490000000     0.0708845  


