data_structure

_audit_creation_method RASPA-1.0
_audit_creation_date 2023-5-25
_audit_author_name 'Poobodin Mano'

_cell_length_a    29.9971
_cell_length_b    29.6552
_cell_length_c    29.5098
_cell_angle_alpha 89.9998
_cell_angle_beta  89.9998
_cell_angle_gamma 89.9998
_cell_volume      26251

_symmetry_cell_setting          triclinic
_symmetry_space_group_name_Hall 'P 1'
_symmetry_space_group_name_H-M  'P 1'
_symmetry_Int_Tables_number     1

_symmetry_equiv_pos_as_xyz 'x,y,z'

loop_
_atom_site_label
_atom_site_type_symbol
_atom_site_fract_x
_atom_site_fract_y
_atom_site_fract_z
_atom_site_charge
C1       C      0.990730000000     0.106670000000     0.501570000000     0.4009     
C2       C      0.989600000000     0.930150000000     0.533180000000     0.401974   
C3       C      0.079660000000     0.017090000000     0.521870000000     0.399395   
C4       C      0.902280000000     0.017080000000     0.513250000000     0.399698   
C5       C      0.020600000000     0.527300000000     0.430200000000     0.404254   
C6       C      0.007080000000     0.514850000000     0.609190000000     0.40206    
C7       C      0.012970000000     0.430240000000     0.513690000000     0.401561   
C8       C      0.014710000000     0.609400000000     0.525260000000     0.402896   
C9       C      0.500820000000     0.014470000000     0.579060000000     0.400402   
C10      C      0.480910000000     0.038260000000     0.401190000000     0.401134   
C11      C      0.579400000000     0.030650000000     0.481380000000     0.401174   
C12      C      0.402720000000     0.024040000000     0.499170000000     0.400449   
C13      C      0.520750000000     0.991720000000     0.082450000000     0.399245   
C14      C      0.534550000000     0.995610000000     0.902440000000     0.398923   
C15      C      0.528940000000     0.081800000000     0.993720000000     0.402896   
C16      C      0.526720000000     0.902350000000     0.990650000000     0.401813   
C17      C      0.977140000000     0.499510000000     0.113350000000     0.403116   
C18      C      0.003120000000     0.494410000000     0.935260000000     0.403962   
C19      C      0.077320000000     0.497600000000     0.038200000000     0.402928   
C20      C      0.902010000000     0.499040000000     0.010340000000     0.401581   
C21      C      0.491720000000     0.400260000000     0.027660000000     0.401279   
C22      C      0.487920000000     0.579640000000     0.025200000000     0.400281   
C23      C      0.401360000000     0.487280000000     0.028670000000     0.401132   
C24      C      0.578480000000     0.490500000000     0.023920000000     0.402552   
C25      C      0.832760000000     0.462500000000     0.982560000000     0.0111014  
C26      C      0.649740000000     0.506150000000     0.061770000000     0.0166948  
C27      C      0.647000000000     0.460870000000     0.988410000000     0.0965674  
C28      C      0.691600000000     0.530610000000     0.045530000000    -0.107747   
C29      C      0.787990000000     0.454190000000     0.006280000000    -0.0991289  
C30      C      0.691910000000     0.481770000000     0.974310000000    -0.130834   
C31      C      0.763170000000     0.497820000000     0.016050000000     0.0132996  
C32      C      0.717860000000     0.500100000000     0.014380000000     0.0274141  
C33      C      0.832350000000     0.543140000000     0.009420000000     0.0126108  
C34      C      0.790620000000     0.534750000000     0.037780000000    -0.100195   
C35      C      0.653610000000     0.412690000000     0.006320000000    -0.192641   
C36      C      0.332690000000     0.458900000000     0.065110000000     0.010699   
C37      C      0.147600000000     0.540230000000     0.036450000000     0.0167098  
C38      C      0.145450000000     0.460680000000     0.068400000000     0.0959665  
C39      C      0.189980000000     0.529590000000     0.010140000000    -0.107345   
C40      C      0.288120000000     0.480640000000     0.078170000000    -0.0991507  
C41      C      0.191780000000     0.451690000000     0.047430000000    -0.13001    
C42      C      0.262160000000     0.496580000000     0.037030000000     0.0137793  
C43      C      0.216810000000     0.494640000000     0.035510000000     0.026561   
C44      C      0.330040000000     0.498080000000     0.989130000000     0.0130591  
C45      C      0.288580000000     0.524270000000     0.003380000000    -0.100636   
C46      C      0.149490000000     0.470530000000     0.119320000000    -0.192212   
C47      C      0.498340000000     0.652180000000     0.065140000000     0.0116416  
C48      C      0.491510000000     0.831590000000     0.964490000000     0.0154555  
C49      C      0.563190000000     0.830260000000     0.010610000000     0.0984191  
C50      C      0.473410000000     0.791780000000     0.991710000000    -0.106591   
C51      C      0.529310000000     0.691290000000     0.052150000000    -0.0996696  
C52      C      0.544710000000     0.790780000000     0.039090000000    -0.131748   
C53      C      0.509020000000     0.718120000000     0.013600000000     0.0131223  
C54      C      0.510770000000     0.764040000000     0.012210000000     0.0271359  
C55      C      0.466580000000     0.650200000000     0.986080000000     0.011697   
C56      C      0.495350000000     0.690560000000     0.972540000000    -0.0993976  
C57      C      0.595610000000     0.813620000000     0.973920000000    -0.192789   
C58      C      0.471300000000     0.327620000000     0.992080000000     0.011871   
C59      C      0.569370000000     0.152490000000     0.009450000000     0.0157304  
C60      C      0.492910000000     0.153390000000     0.971630000000     0.0975981  
C61      C      0.556120000000     0.192640000000     0.039300000000    -0.107982   
C62      C      0.503900000000     0.292870000000     0.973390000000    -0.0990399  
C63      C      0.480500000000     0.195110000000     0.999670000000    -0.131723   
C64      C      0.524560000000     0.266360000000     0.011900000000     0.0123319  
C65      C      0.521490000000     0.220710000000     0.015070000000     0.028539   
C66      C      0.513490000000     0.329490000000     0.066150000000     0.0102216  
C67      C      0.547060000000     0.294740000000     0.047970000000    -0.0992048  
C68      C      0.506140000000     0.166610000000     0.923140000000    -0.193034   
C69      C      0.577590000000     0.986060000000     0.831420000000     0.0111291  
C70      C      0.487710000000     0.041420000000     0.657190000000     0.0151354  
C71      C      0.525310000000     0.965600000000     0.642540000000     0.0972093  
C72      C      0.520790000000     0.050840000000     0.695250000000    -0.106761   
C73      C      0.564440000000     0.965730000000     0.785240000000    -0.0998547  
C74      C      0.558190000000     0.975100000000     0.681930000000    -0.131443   
C75      C      0.532740000000     0.997060000000     0.760520000000     0.0135156  
C76      C      0.537190000000     0.007110000000     0.715670000000     0.0271663  
C77      C      0.506190000000     0.031280000000     0.832970000000     0.0117996  
C78      C      0.492250000000     0.011370000000     0.787550000000    -0.099748   
C79      C      0.488050000000     0.933240000000     0.657330000000    -0.192386   
C80      C      0.554340000000     0.009600000000     0.157060000000     0.0104964  
C81      C      0.447590000000     0.011280000000     0.329760000000     0.0168679  
C82      C      0.494820000000     0.082240000000     0.331270000000     0.0981487  
C83      C      0.473340000000     0.993310000000     0.289050000000    -0.106335   
C84      C      0.538060000000     0.046000000000     0.190300000000    -0.0994367  
C85      C      0.521170000000     0.065130000000     0.289510000000    -0.130753   
C86      C      0.497790000000     0.028650000000     0.215960000000     0.0130156  
C87      C      0.494320000000     0.031310000000     0.262000000000     0.0265129  
C88      C      0.477000000000     0.976670000000     0.152240000000     0.0113214  
C89      C      0.460070000000     0.011650000000     0.186200000000    -0.0994479  
C90      C      0.458800000000     0.116450000000     0.317620000000    -0.193148   
C91      C      0.962160000000     0.497950000000     0.676910000000     0.0120338  
C92      C      0.033050000000     0.528880000000     0.865310000000     0.0158342  
C93      C      0.997110000000     0.450960000000     0.864330000000     0.0994289  
C94      C      0.009870000000     0.540520000000     0.820730000000    -0.107121   
C95      C      0.973150000000     0.469050000000     0.718460000000    -0.100184   
C96      C      0.971890000000     0.463330000000     0.820630000000    -0.13277    
C97      C      0.004580000000     0.494880000000     0.749000000000     0.0135404  
C98      C      0.997790000000     0.498390000000     0.794390000000     0.0279879  
C99      C      0.036450000000     0.537940000000     0.683570000000     0.0116673  
C100     C      0.046940000000     0.511370000000     0.726560000000    -0.0997287  
C101     C      0.038610000000     0.422210000000     0.854400000000    -0.193009   
C102     C      0.987800000000     0.461210000000     0.186830000000     0.0105223  
C103     C      0.990700000000     0.560680000000     0.360090000000     0.0172153  
C104     C      0.062500000000     0.515060000000     0.359330000000     0.0995679  
C105     C      0.974330000000     0.536540000000     0.317670000000    -0.107281   
C106     C      0.026400000000     0.475760000000     0.217660000000    -0.0985536  
C107     C      0.046170000000     0.489390000000     0.317010000000    -0.13233    
C108     C      0.011790000000     0.516720000000     0.244540000000     0.0119583  
C109     C      0.012850000000     0.517400000000     0.290550000000     0.0282149  
C110     C      0.958180000000     0.540500000000     0.184110000000     0.0123007  
C111     C      0.994700000000     0.556100000000     0.216610000000    -0.0992012  
C112     C      0.095100000000     0.553050000000     0.346830000000    -0.193469   
C113     C      0.149950000000     0.983460000000     0.494350000000     0.010894   
C114     C      0.333250000000     0.064170000000     0.518010000000     0.0154677  
C115     C      0.331280000000     0.985130000000     0.483760000000     0.0964491  
C116     C      0.293640000000     0.052530000000     0.548580000000    -0.107841   
C117     C      0.194700000000     0.003850000000     0.480400000000    -0.0991318  
C118     C      0.289480000000     0.975010000000     0.512290000000    -0.131015   
C119     C      0.219760000000     0.022380000000     0.520980000000     0.0131547  
C120     C      0.264840000000     0.017680000000     0.525410000000     0.0275333  
C121     C      0.148880000000     0.031870000000     0.564700000000     0.0115111  
C122     C      0.192970000000     0.054040000000     0.550720000000    -0.0998512  
C123     C      0.318610000000     0.995330000000     0.434400000000    -0.192215   
C124     C      0.829520000000     0.027970000000     0.550760000000     0.0118224  
C125     C      0.650750000000     0.998060000000     0.454060000000     0.0147767  
C126     C      0.648720000000     0.073690000000     0.494500000000     0.0984411  
C127     C      0.693010000000     0.985140000000     0.480200000000    -0.10635    
C128     C      0.788260000000     0.054120000000     0.535140000000    -0.0996605  
C129     C      0.689570000000     0.060070000000     0.522900000000    -0.131803   
C130     C      0.763460000000     0.027680000000     0.499090000000     0.013204   
C131     C      0.717990000000     0.026190000000     0.497630000000     0.0267696  
C132     C      0.834450000000     0.988890000000     0.475020000000     0.0112244  
C133     C      0.791840000000     0.012550000000     0.459310000000    -0.0995387  
C134     C      0.661720000000     0.104300000000     0.454600000000    -0.192691   
C135     C      0.964100000000     0.854900000000     0.508950000000     0.0127606  
C136     C      0.054000000000     0.680030000000     0.544550000000     0.0154462  
C137     C      0.978790000000     0.680990000000     0.503790000000     0.0978445  
C138     C      0.039790000000     0.720840000000     0.573240000000    -0.108327   
C139     C      0.994160000000     0.815620000000     0.496200000000    -0.0994726  
C140     C      0.965610000000     0.722630000000     0.531440000000    -0.132301   
C141     C      0.011840000000     0.793200000000     0.538650000000     0.013066   
C142     C      0.006260000000     0.748460000000     0.547030000000     0.0290432  
C143     C      0.005350000000     0.864730000000     0.582890000000     0.0109186  
C144     C      0.035690000000     0.824380000000     0.571410000000    -0.0997359  
C145     C      0.993270000000     0.693940000000     0.455610000000    -0.192986   
C146     C      0.959670000000     0.180900000000     0.521760000000     0.0123083  
C147     C      0.052730000000     0.358580000000     0.499640000000     0.0149033  
C148     C      0.972540000000     0.359380000000     0.528810000000     0.0974334  
C149     C      0.041830000000     0.318150000000     0.468890000000    -0.1077     
C150     C      0.984560000000     0.223210000000     0.536380000000    -0.0992797  
C151     C      0.962460000000     0.318070000000     0.499250000000    -0.131694   
C152     C      0.006390000000     0.245740000000     0.495970000000     0.0131913  
C153     C      0.004220000000     0.291180000000     0.489520000000     0.0281053  
C154     C      0.009830000000     0.172510000000     0.453650000000     0.0112494  
C155     C      0.035700000000     0.215300000000     0.467340000000    -0.0997108  
C156     C      0.979650000000     0.345780000000     0.578500000000    -0.192984   
Cu1      Cu     0.989100000000     0.025890000000     0.558390000000     0.839      
Cu2      Cu     0.992860000000     0.010740000000     0.476290000000     0.836034   
Cu3      Cu     0.055060000000     0.519290000000     0.522720000000     0.8353     
Cu4      Cu     0.972880000000     0.520520000000     0.516480000000     0.848148   
Cu5      Cu     0.491950000000     0.985620000000     0.484120000000     0.830774   
Cu6      Cu     0.490190000000     0.067900000000     0.496060000000     0.839616   
Cu7      Cu     0.568730000000     0.991560000000     0.995980000000     0.83489    
Cu8      Cu     0.486790000000     0.992760000000     0.988770000000     0.838748   
Cu9      Cu     0.989140000000     0.455900000000     0.025360000000     0.838392   
Cu10     Cu     0.990220000000     0.539180000000     0.023120000000     0.846638   
Cu11     Cu     0.491440000000     0.490430000000     0.068170000000     0.838262   
Cu12     Cu     0.488390000000     0.489240000000     0.984610000000     0.841069   
H1       H      0.768460000000     0.429700000000     0.986080000000     0.0408701  
H2       H      0.659590000000     0.477690000000     0.084180000000     0.0265845  
H3       H      0.822270000000     0.556560000000     0.975720000000     0.0280452  
H4       H      0.772200000000     0.567230000000     0.039390000000     0.0417953  
H5       H      0.710850000000     0.539960000000     0.076300000000     0.0434216  
H6       H      0.710990000000     0.457660000000     0.953170000000     0.0497465  
H7       H      0.852620000000     0.430860000000     0.982980000000     0.03432    
H8       H      0.629810000000     0.530170000000     0.082490000000     0.0326847  
H9       H      0.800070000000     0.524610000000     0.072750000000     0.0501553  
H10      H      0.684760000000     0.510810000000     0.951610000000     0.0559584  
H11      H      0.852550000000     0.569470000000     0.026690000000     0.0350636  
H12      H      0.794730000000     0.437530000000     0.039320000000     0.0498492  
H13      H      0.682260000000     0.561970000000     0.027200000000     0.0503952  
H14      H      0.626340000000     0.457980000000     0.957210000000     0.0165506  
H15      H      0.825830000000     0.470750000000     0.946470000000     0.025698   
H16      H      0.676280000000     0.412330000000     0.036080000000     0.0677825  
H17      H      0.668070000000     0.390900000000     0.979460000000     0.0600129  
H18      H      0.620990000000     0.398100000000     0.016500000000     0.0696345  
H19      H      0.269310000000     0.456940000000     0.099970000000     0.0408293  
H20      H      0.156630000000     0.556640000000     0.069070000000     0.0254119  
H21      H      0.319680000000     0.467410000000     0.970120000000     0.0285295  
H22      H      0.269400000000     0.531280000000     0.971940000000     0.0418571  
H23      H      0.208450000000     0.561880000000     0.006470000000     0.0432292  
H24      H      0.210940000000     0.428370000000     0.069380000000     0.04949    
H25      H      0.353510000000     0.455110000000     0.096050000000     0.0347938  
H26      H      0.128130000000     0.565090000000     0.016340000000     0.0338218  
H27      H      0.298320000000     0.556910000000     0.019060000000     0.0497087  
H28      H      0.186630000000     0.433000000000     0.015180000000     0.0552784  
H29      H      0.349750000000     0.519740000000     0.965750000000     0.0342117  
H30      H      0.295190000000     0.510700000000     0.099510000000     0.049286   
H31      H      0.181480000000     0.516700000000     0.975830000000     0.0506365  
H32      H      0.125840000000     0.428980000000     0.065240000000     0.0162201  
H33      H      0.325730000000     0.424380000000     0.052180000000     0.0263798  
H34      H      0.171680000000     0.499830000000     0.125670000000     0.0669918  
H35      H      0.163300000000     0.440730000000     0.137290000000     0.0594357  
H36      H      0.116060000000     0.477920000000     0.133710000000     0.0679664  
H37      H      0.533930000000     0.712230000000     0.083020000000     0.0418292  
H38      H      0.506180000000     0.818340000000     0.932560000000     0.0234693  
H39      H      0.433240000000     0.663060000000     0.996310000000     0.0260545  
H40      H      0.477760000000     0.710210000000     0.946130000000     0.0413579  
H41      H      0.450250000000     0.772130000000     0.970180000000     0.0434574  
H42      H      0.573300000000     0.769630000000     0.050190000000     0.0497362  
H43      H      0.515360000000     0.631280000000     0.091220000000     0.0341695  
H44      H      0.463220000000     0.853690000000     0.954570000000     0.0341133  
H45      H      0.526260000000     0.677670000000     0.956290000000     0.0504615  
H46      H      0.528300000000     0.804330000000     0.070010000000     0.0555769  
H47      H      0.461560000000     0.628180000000     0.956010000000     0.0343982  
H48      H      0.562320000000     0.677940000000     0.041520000000     0.0487791  
H49      H      0.452900000000     0.805270000000     0.020010000000     0.0523319  
H50      H      0.582770000000     0.851880000000     0.034200000000     0.0154764  
H51      H      0.467480000000     0.666250000000     0.080540000000     0.0286242  
H52      H      0.579340000000     0.789110000000     0.950770000000     0.0681407  
H53      H      0.624870000000     0.797010000000     0.989870000000     0.0612914  
H54      H      0.607800000000     0.842650000000     0.953630000000     0.0728917  
H55      H      0.487520000000     0.271640000000     0.947340000000     0.0408509  
H56      H      0.588480000000     0.165090000000     0.979750000000     0.0261478  
H57      H      0.487090000000     0.311380000000     0.085390000000     0.0281617  
H58      H      0.558930000000     0.274570000000     0.077260000000     0.04092    
H59      H      0.587030000000     0.212040000000     0.046340000000     0.0428658  
H60      H      0.455660000000     0.215960000000     0.981390000000     0.0503648  
H61      H      0.458720000000     0.348930000000     0.963850000000     0.0344083  
H62      H      0.592030000000     0.130410000000     0.029410000000     0.0327813  
H63      H      0.576180000000     0.312450000000     0.032910000000     0.0464516  
H64      H      0.462970000000     0.183380000000     0.030700000000     0.0567396  
H65      H      0.531130000000     0.352320000000     0.090080000000     0.0338145  
H66      H      0.531090000000     0.311050000000     0.955450000000     0.0502097  
H67      H      0.542260000000     0.180370000000     0.071980000000     0.0498443  
H68      H      0.462270000000     0.132450000000     0.968680000000     0.0164278  
H69      H      0.442210000000     0.309360000000     0.006570000000     0.0255257  
H70      H      0.535030000000     0.190030000000     0.923050000000     0.0679823  
H71      H      0.477730000000     0.183320000000     0.905790000000     0.0599204  
H72      H      0.515150000000     0.135940000000     0.903540000000     0.0688629  
H73      H      0.595730000000     0.960290000000     0.765870000000     0.0415649  
H74      H      0.456590000000     0.027770000000     0.672370000000     0.023486   
H75      H      0.522720000000     0.064250000000     0.826570000000     0.0241678  
H76      H      0.470140000000     0.035430000000     0.769680000000     0.0413396  
H77      H      0.506180000000     0.074460000000     0.720280000000     0.0431816  
H78      H      0.568170000000     0.942460000000     0.697350000000     0.0494638  
H79      H      0.596710000000     0.960440000000     0.850940000000     0.0323543  
H80      H      0.478790000000     0.073880000000     0.640700000000     0.0340825  
H81      H      0.471670000000     0.980870000000     0.794010000000     0.0503866  
H82      H      0.588860000000     0.991010000000     0.668100000000     0.0545314  
H83      H      0.475810000000     0.038260000000     0.853380000000     0.0336721  
H84      H      0.547980000000     0.932550000000     0.790420000000     0.0479133  
H85      H      0.549970000000     0.068780000000     0.680600000000     0.0517643  
H86      H      0.544730000000     0.948060000000     0.615640000000     0.0153145  
H87      H      0.599880000000     0.015460000000     0.825480000000     0.0287594  
H88      H      0.468630000000     0.947340000000     0.686070000000     0.0682512  
H89      H      0.502460000000     0.900390000000     0.667940000000     0.0611352  
H90      H      0.464990000000     0.927000000000     0.628570000000     0.0732369  
H91      H      0.566380000000     0.054250000000     0.213070000000     0.0413873  
H92      H      0.417080000000     0.028430000000     0.317170000000     0.0214568  
H93      H      0.485830000000     0.945550000000     0.171260000000     0.0259897  
H94      H      0.431340000000     0.997830000000     0.205210000000     0.0411367  
H95      H      0.451020000000     0.971220000000     0.269090000000     0.0433434  
H96      H      0.530850000000     0.094810000000     0.268670000000     0.0491002  
H97      H      0.582020000000     0.023940000000     0.136570000000     0.0350009  
H98      H      0.436180000000     0.982440000000     0.350880000000     0.0312547  
H99      H      0.446760000000     0.040890000000     0.166910000000     0.0507615  
H100     H      0.552300000000     0.048460000000     0.301210000000     0.0546718  
H101     H      0.449660000000     0.967810000000     0.128430000000     0.0346635  
H102     H      0.528750000000     0.076990000000     0.171340000000     0.0486734  
H103     H      0.500670000000     0.971300000000     0.301640000000     0.0538749  
H104     H      0.518940000000     0.100350000000     0.353460000000     0.0129479  
H105     H      0.567930000000     0.980810000000     0.176900000000     0.0281779  
H106     H      0.435650000000     0.102170000000     0.292010000000     0.067617   
H107     H      0.474570000000     0.147110000000     0.303090000000     0.0607959  
H108     H      0.439300000000     0.126660000000     0.347930000000     0.0718613  
H109     H      0.941040000000     0.461010000000     0.735380000000     0.0414135  
H110     H      0.067560000000     0.517670000000     0.857520000000     0.0230343  
H111     H      0.022370000000     0.571150000000     0.693710000000     0.0261089  
H112     H      0.068560000000     0.531800000000     0.749040000000     0.0413     
H113     H      0.030620000000     0.564730000000     0.801420000000     0.0437222  
H114     H      0.966500000000     0.431860000000     0.800900000000     0.0495004  
H115     H      0.941590000000     0.477450000000     0.653250000000     0.0323939  
H116     H      0.035970000000     0.559970000000     0.886130000000     0.0335828  
H117     H      0.066970000000     0.481300000000     0.717010000000     0.0496571  
H118     H      0.938610000000     0.477340000000     0.829420000000     0.0557829  
H119     H      0.068030000000     0.544730000000     0.665050000000     0.0342376  
H120     H      0.989130000000     0.436980000000     0.707670000000     0.0473469  
H121     H      0.978370000000     0.558610000000     0.828710000000     0.0525293  
H122     H      0.974030000000     0.429620000000     0.884680000000     0.0150378  
H123     H      0.941890000000     0.527440000000     0.687850000000     0.0292892  
H124     H      0.062190000000     0.440090000000     0.831610000000     0.0681123  
H125     H      0.028730000000     0.389970000000     0.838070000000     0.0610332  
H126     H      0.056100000000     0.414160000000     0.886570000000     0.0730553  
H127     H      0.035200000000     0.446550000000     0.239420000000     0.0409147  
H128     H      0.006350000000     0.593030000000     0.349660000000     0.0209513  
H129     H      0.928180000000     0.531800000000     0.204470000000     0.0253448  
H130     H      0.982860000000     0.584990000000     0.237170000000     0.0409655  
H131     H      0.952640000000     0.559760000000     0.298240000000     0.043609   
H132     H      0.075700000000     0.480470000000     0.296040000000     0.0492605  
H133     H      0.998990000000     0.432180000000     0.165890000000     0.0349053  
H134     H      0.961560000000     0.569550000000     0.381610000000     0.0317271  
H135     H      0.023020000000     0.569210000000     0.196180000000     0.0512167  
H136     H      0.029800000000     0.457480000000     0.327700000000     0.0553869  
H137     H      0.948920000000     0.568610000000     0.161040000000     0.0337416  
H138     H      0.055990000000     0.484570000000     0.196790000000     0.0467873  
H139     H      0.952780000000     0.507910000000     0.328230000000     0.0534743  
H140     H      0.081290000000     0.490440000000     0.380500000000     0.0136028  
H141     H      0.959630000000     0.449560000000     0.208410000000     0.0278101  
H142     H      0.079940000000     0.577210000000     0.322580000000     0.067615   
H143     H      0.125600000000     0.538650000000     0.331120000000     0.0608308  
H144     H      0.105130000000     0.571670000000     0.377850000000     0.0725502  
H145     H      0.213570000000     0.978630000000     0.460510000000     0.0408576  
H146     H      0.320870000000     0.082800000000     0.487810000000     0.0263679  
H147     H      0.156150000000     0.003730000000     0.588520000000     0.0285763  
H148     H      0.210790000000     0.062420000000     0.582620000000     0.0415769  
H149     H      0.275710000000     0.084580000000     0.555220000000     0.0431228  
H150     H      0.268440000000     0.949270000000     0.495480000000     0.049648   
H151     H      0.130770000000     0.975030000000     0.463250000000     0.03501    
H152     H      0.355440000000     0.087450000000     0.537120000000     0.0333027  
H153     H      0.186240000000     0.085810000000     0.531940000000     0.0487057  
H154     H      0.300630000000     0.958720000000     0.544280000000     0.055369   
H155     H      0.128580000000     0.057290000000     0.583220000000     0.0345066  
H156     H      0.188180000000     0.032380000000     0.456880000000     0.0494952  
H157     H      0.305810000000     0.038950000000     0.581440000000     0.0499724  
H158     H      0.351650000000     0.953770000000     0.483240000000     0.0162992  
H159     H      0.156570000000     0.951240000000     0.512430000000     0.02622    
H160     H      0.296320000000     0.025160000000     0.432250000000     0.0677854  
H161     H      0.301270000000     0.965920000000     0.419120000000     0.0599032  
H162     H      0.349140000000     0.002160000000     0.414210000000     0.0695103  
H163     H      0.767480000000     0.059800000000     0.565780000000     0.0415278  
H164     H      0.660830000000     0.011200000000     0.420310000000     0.023509   
H165     H      0.825180000000     0.955000000000     0.488130000000     0.0263193  
H166     H      0.774230000000     0.990370000000     0.435070000000     0.0413008  
H167     H      0.713390000000     0.962510000000     0.458780000000     0.0432094  
H168     H      0.708220000000     0.091370000000     0.531270000000     0.0494793  
H169     H      0.848500000000     0.049580000000     0.574780000000     0.0340948  
H170     H      0.630810000000     0.967080000000     0.447840000000     0.0341313  
H171     H      0.801440000000     0.043140000000     0.439860000000     0.049957   
H172     H      0.678270000000     0.044680000000     0.555280000000     0.0553734  
H173     H      0.856530000000     0.983550000000     0.445250000000     0.0347634  
H174     H      0.798360000000     0.087410000000     0.521190000000     0.0484886  
H175     H      0.682970000000     0.964730000000     0.510110000000     0.0515142  
H176     H      0.627180000000     0.094180000000     0.517310000000     0.0164271  
H177     H      0.818530000000     0.997320000000     0.569410000000     0.0288309  
H178     H      0.686190000000     0.087600000000     0.431890000000     0.0678577  
H179     H      0.676650000000     0.136140000000     0.467370000000     0.0609232  
H180     H      0.631580000000     0.112990000000     0.434550000000     0.0713985  
H181     H      0.976450000000     0.792510000000     0.472850000000     0.0410625  
H182     H      0.074740000000     0.692030000000     0.515750000000     0.0262837  
H183     H      0.977200000000     0.852530000000     0.604150000000     0.0287711  
H184     H      0.044300000000     0.807430000000     0.603800000000     0.0417736  
H185     H      0.070390000000     0.740220000000     0.581550000000     0.043363   
H186     H      0.940750000000     0.743380000000     0.513020000000     0.0505721  
H187     H      0.953190000000     0.872630000000     0.477660000000     0.033842   
H188     H      0.075330000000     0.657850000000     0.565870000000     0.032446   
H189     H      0.067000000000     0.836680000000     0.555500000000     0.0487347  
H190     H      0.947880000000     0.710830000000     0.562340000000     0.0571648  
H191     H      0.024770000000     0.889540000000     0.603130000000     0.0340123  
H192     H      0.023040000000     0.828930000000     0.476740000000     0.0513038  
H193     H      0.024470000000     0.709100000000     0.605440000000     0.0503698  
H194     H      0.948170000000     0.660120000000     0.500100000000     0.0168668  
H195     H      0.933700000000     0.841160000000     0.525550000000     0.0255298  
H196     H      0.022650000000     0.716720000000     0.456170000000     0.0679422  
H197     H      0.965550000000     0.711160000000     0.437610000000     0.0597612  
H198     H      0.002110000000     0.663100000000     0.436200000000     0.068698   
H199     H      0.961730000000     0.245370000000     0.555710000000     0.0409556  
H200     H      0.068850000000     0.345980000000     0.531120000000     0.0268254  
H201     H      0.983630000000     0.182010000000     0.428740000000     0.0287528  
H202     H      0.046550000000     0.232200000000     0.435590000000     0.041656   
H203     H      0.072810000000     0.297990000000     0.465150000000     0.0431869  
H204     H      0.934770000000     0.297960000000     0.513790000000     0.0500919  
H205     H      0.946860000000     0.163170000000     0.552310000000     0.0339569  
H206     H      0.077410000000     0.380270000000     0.481850000000     0.0325993  
H207     H      0.065830000000     0.205810000000     0.487070000000     0.0488278  
H208     H      0.949520000000     0.330370000000     0.466160000000     0.0566387  
H209     H      0.033190000000     0.148700000000     0.436760000000     0.0334084  
H210     H      0.011310000000     0.213300000000     0.560480000000     0.0509804  
H211     H      0.031670000000     0.330350000000     0.434800000000     0.0497679  
H212     H      0.942240000000     0.381020000000     0.528090000000     0.0167656  
H213     H      0.930240000000     0.191370000000     0.501380000000     0.0256451  
H214     H      0.008180000000     0.322170000000     0.582050000000     0.0682128  
H215     H      0.949220000000     0.329220000000     0.592060000000     0.0598568  
H216     H      0.986430000000     0.376250000000     0.599290000000     0.0695627  
N1       N      0.623970000000     0.488510000000     0.023080000000    -0.185948   
N2       N      0.857040000000     0.500660000000     0.003020000000    -0.174898   
N3       N      0.122320000000     0.498530000000     0.045610000000    -0.186069   
N4       N      0.355930000000     0.484410000000     0.029240000000    -0.174988   
N5       N      0.526350000000     0.856230000000     0.989800000000    -0.185826   
N6       N      0.486230000000     0.625700000000     0.024720000000    -0.174576   
N7       N      0.529610000000     0.127850000000     0.993330000000    -0.186104   
N8       N      0.492640000000     0.354270000000     0.028310000000    -0.175572   
N9       N      0.505780000000     0.008050000000     0.624750000000    -0.185295   
N10      N      0.537960000000     0.001410000000     0.856630000000    -0.174776   
N11      N      0.474710000000     0.043830000000     0.355670000000    -0.186468   
N12      N      0.517140000000     0.993300000000     0.128660000000    -0.174207   
N13      N      0.009670000000     0.492230000000     0.889520000000    -0.186671   
N14      N      0.003350000000     0.514290000000     0.655220000000    -0.175713   
N15      N      0.023980000000     0.533270000000     0.384540000000    -0.187571   
N16      N      0.973080000000     0.500030000000     0.159390000000    -0.175682   
N17      N      0.357190000000     0.023280000000     0.502770000000    -0.185351   
N18      N      0.125060000000     0.013700000000     0.525010000000    -0.174299   
N19      N      0.624880000000     0.033200000000     0.477910000000    -0.185639   
N20      N      0.856810000000     0.014140000000     0.511660000000    -0.174469   
N21      N      0.014920000000     0.655460000000     0.526520000000    -0.186097   
N22      N      0.987230000000     0.884920000000     0.541100000000    -0.175342   
N23      N      0.012130000000     0.384140000000     0.511910000000    -0.185444   
N24      N      0.988390000000     0.151930000000     0.493520000000    -0.174842   
O1       O      0.985820000000     0.092090000000     0.542140000000    -0.401213   
O2       O      0.992210000000     0.957740000000     0.566600000000    -0.399213   
O3       O      0.056820000000     0.028190000000     0.556950000000    -0.399368   
O4       O      0.921810000000     0.022610000000     0.551570000000    -0.399736   
O5       O      0.925130000000     0.013110000000     0.476680000000    -0.398669   
O6       O      0.060110000000     0.007720000000     0.484350000000    -0.399144   
O7       O      0.988330000000     0.944610000000     0.492270000000    -0.401559   
O8       O      0.996580000000     0.079110000000     0.468500000000    -0.39763    
O9       O      0.056110000000     0.522980000000     0.454050000000    -0.402929   
O10      O      0.045820000000     0.516430000000     0.590810000000    -0.400833   
O11      O      0.050370000000     0.450980000000     0.517490000000    -0.399462   
O12      O      0.051650000000     0.587640000000     0.527230000000    -0.400795   
O13      O      0.977550000000     0.588430000000     0.521040000000    -0.404068   
O14      O      0.976210000000     0.452330000000     0.512470000000    -0.402965   
O15      O      0.971680000000     0.514860000000     0.584840000000    -0.403553   
O16      O      0.981980000000     0.526890000000     0.448810000000    -0.404107   
O17      O      0.502310000000     0.980500000000     0.552120000000    -0.400374   
O18      O      0.481070000000     0.998330000000     0.417730000000    -0.4019     
O19      O      0.559140000000     0.992990000000     0.474830000000    -0.396481   
O20      O      0.424550000000     0.987160000000     0.493530000000    -0.39819    
O21      O      0.423170000000     0.061980000000     0.500630000000    -0.403573   
O22      O      0.557300000000     0.066220000000     0.491530000000    -0.404892   
O23      O      0.486170000000     0.072810000000     0.426970000000    -0.399041   
O24      O      0.494520000000     0.054380000000     0.563460000000    -0.399222   
O25      O      0.559410000000     0.993770000000     0.064000000000    -0.39929    
O26      O      0.569840000000     0.990300000000     0.926600000000    -0.397076   
O27      O      0.565800000000     0.059890000000     0.995260000000    -0.401197   
O28      O      0.563570000000     0.923290000000     0.997420000000    -0.401579   
O29      O      0.490330000000     0.924340000000     0.984670000000    -0.399785   
O30      O      0.491530000000     0.060900000000     0.991890000000    -0.401831   
O31      O      0.496050000000     0.997660000000     0.921120000000    -0.401496   
O32      O      0.485510000000     0.988870000000     0.057840000000    -0.398093   
O33      O      0.980010000000     0.461570000000     0.092820000000    -0.404669   
O34      O      0.998550000000     0.457710000000     0.957710000000    -0.406103   
O35      O      0.056330000000     0.459840000000     0.036410000000    -0.398799   
O36      O      0.922060000000     0.460910000000     0.014140000000    -0.396853   
O37      O      0.923820000000     0.536070000000     0.013240000000    -0.405312   
O38      O      0.056430000000     0.534940000000     0.033250000000    -0.406918   
O39      O      0.001360000000     0.532830000000     0.955300000000    -0.400154   
O40      O      0.979360000000     0.536750000000     0.091230000000    -0.400257   
O41      O      0.496060000000     0.422250000000     0.064830000000    -0.401303   
O42      O      0.488030000000     0.558650000000     0.063250000000    -0.399845   
O43      O      0.423570000000     0.485290000000     0.065860000000    -0.398079   
O44      O      0.558430000000     0.494840000000     0.062040000000    -0.402295   
O45      O      0.556230000000     0.486730000000     0.986940000000    -0.400972   
O46      O      0.421460000000     0.491140000000     0.990550000000    -0.403185   
O47      O      0.488970000000     0.557760000000     0.987670000000    -0.399216   
O48      O      0.486500000000     0.421040000000     0.989900000000    -0.401181   


