data_structure

_audit_creation_method RASPA-1.0
_audit_creation_date 2023-5-25
_audit_author_name 'Poobodin Mano'

_cell_length_a    29.5765
_cell_length_b    29.8869
_cell_length_c    29.6146
_cell_angle_alpha 89.9998
_cell_angle_beta  89.9998
_cell_angle_gamma 89.9998
_cell_volume      26177.8

_symmetry_cell_setting          triclinic
_symmetry_space_group_name_Hall 'P 1'
_symmetry_space_group_name_H-M  'P 1'
_symmetry_Int_Tables_number     1

_symmetry_equiv_pos_as_xyz 'x,y,z'

loop_
_atom_site_label
_atom_site_type_symbol
_atom_site_fract_x
_atom_site_fract_y
_atom_site_fract_z
_atom_site_charge
C1       C      0.111490000000     0.003950000000     0.514200000000     0.39842    
C2       C      0.931390000000     0.999760000000     0.506370000000     0.403167   
C3       C      0.020200000000     0.091560000000     0.510140000000     0.401514   
C4       C      0.022170000000     0.913170000000     0.511250000000     0.401687   
C5       C      0.004210000000     0.499970000000     0.424940000000     0.401919   
C6       C      0.025600000000     0.510230000000     0.603170000000     0.401186   
C7       C      0.027730000000     0.416360000000     0.519960000000     0.400572   
C8       C      0.002210000000     0.592410000000     0.507430000000     0.401966   
C9       C      0.539720000000     0.984090000000     0.589820000000     0.40248    
C10      C      0.512250000000     0.977120000000     0.412290000000     0.402973   
C11      C      0.612930000000     0.964600000000     0.486520000000     0.404684   
C12      C      0.438400000000     0.998130000000     0.515720000000     0.400795   
C13      C      0.489490000000     0.997840000000     0.089990000000     0.401665   
C14      C      0.496500000000     0.013360000000     0.911190000000     0.408772   
C15      C      0.496070000000     0.093450000000     0.007730000000     0.406408   
C16      C      0.490070000000     0.916340000000     0.992620000000     0.40493    
C17      C      0.000260000000     0.520150000000     0.102660000000     0.401331   
C18      C      0.004440000000     0.536980000000     0.923710000000     0.400302   
C19      C      0.092270000000     0.524790000000     0.015430000000     0.401116   
C20      C      0.912880000000     0.533490000000     0.012540000000     0.401854   
C21      C      0.502350000000     0.414690000000     0.020660000000     0.403011   
C22      C      0.505890000000     0.592480000000     0.013280000000     0.402493   
C23      C      0.415180000000     0.503210000000     0.028590000000     0.405136   
C24      C      0.593260000000     0.502120000000     0.004660000000     0.403321   
C25      C      0.659440000000     0.518400000000     0.956470000000     0.0130485  
C26      C      0.840840000000     0.500280000000     0.036960000000     0.012826   
C27      C      0.842770000000     0.575030000000     0.995280000000    -0.0392649  
C28      C      0.801400000000     0.484980000000     0.007930000000    -0.0975282  
C29      C      0.697750000000     0.551390000000     0.967540000000    -0.10571    
C30      C      0.801220000000     0.560280000000     0.967090000000    -0.0745164  
C31      C      0.729650000000     0.529620000000     0.000890000000     0.031872   
C32      C      0.774480000000     0.524990000000     0.992230000000     0.0231301  
C33      C      0.669000000000     0.480850000000     0.032400000000     0.0136002  
C34      C      0.707870000000     0.512350000000     0.043760000000    -0.103394   
C35      C      0.829730000000     0.606480000000     0.033110000000     0.30542    
C36      C      0.348760000000     0.512890000000     0.077960000000     0.0140132  
C37      C      0.163560000000     0.485950000000     0.996130000000     0.0120752  
C38      C      0.163720000000     0.560210000000     0.039010000000    -0.0396212  
C39      C      0.201210000000     0.468770000000     0.026770000000    -0.0970732  
C40      C      0.304280000000     0.537790000000     0.069590000000    -0.105215   
C41      C      0.202160000000     0.542620000000     0.069440000000    -0.0750669  
C42      C      0.274470000000     0.510980000000     0.037980000000     0.0312143  
C43      C      0.229080000000     0.507340000000     0.044630000000     0.0227999  
C44      C      0.341830000000     0.473680000000     0.002830000000     0.0124199  
C45      C      0.296580000000     0.496590000000     0.994120000000    -0.10261    
C46      C      0.181050000000     0.591810000000     0.003050000000     0.304998   
C47      C      0.528010000000     0.660930000000     0.972270000000     0.0132679  
C48      C      0.447840000000     0.846290000000     0.003490000000     0.0122371  
C49      C      0.523380000000     0.846580000000     0.962480000000    -0.0423641  
C50      C      0.461470000000     0.804540000000     0.029880000000    -0.0984327  
C51      C      0.502060000000     0.703580000000     0.960310000000    -0.103941   
C52      C      0.534610000000     0.800760000000     0.983740000000    -0.0724729  
C53      C      0.491190000000     0.731000000000     0.002020000000     0.0256538  
C54      C      0.493210000000     0.776490000000     0.001660000000     0.022288   
C55      C      0.498700000000     0.664900000000     0.052320000000     0.0140212  
C56      C      0.469320000000     0.705340000000     0.040300000000    -0.104759   
C57      C      0.508250000000     0.841800000000     0.913990000000     0.302992   
C58      C      0.463360000000     0.167100000000     0.988430000000     0.0137419  
C59      C      0.513210000000     0.346320000000     0.065330000000     0.0122814  
C60      C      0.473070000000     0.344170000000     0.988800000000    -0.0430543  
C61      C      0.534790000000     0.300920000000     0.055620000000    -0.0984535  
C62      C      0.451260000000     0.207470000000     0.017690000000    -0.105038   
C63      C      0.491100000000     0.296390000000     0.981730000000    -0.0733738  
C64      C      0.493650000000     0.230340000000     0.034680000000     0.0278228  
C65      C      0.503770000000     0.273900000000     0.025770000000     0.0220403  
C66      C      0.538750000000     0.161060000000     0.028820000000     0.0134765  
C67      C      0.525680000000     0.199870000000     0.059950000000    -0.105572   
C68      C      0.423600000000     0.343470000000     0.001460000000     0.303992   
C69      C      0.566440000000     0.023660000000     0.658880000000     0.0124739  
C70      C      0.459830000000     0.005580000000     0.836880000000     0.0136306  
C71      C      0.535470000000     0.044730000000     0.844430000000    -0.0408851  
C72      C      0.476930000000     0.979010000000     0.796250000000    -0.0979     
C73      C      0.535930000000     0.040400000000     0.697210000000    -0.102723   
C74      C      0.551640000000     0.022570000000     0.800290000000    -0.0729286  
C75      C      0.517610000000     0.001990000000     0.725630000000     0.0236765  
C76      C      0.513060000000     0.005130000000     0.771320000000     0.0237021  
C77      C      0.531560000000     0.947310000000     0.664140000000     0.0129505  
C78      C      0.497390000000     0.963390000000     0.699270000000    -0.103191   
C79      C      0.520730000000     0.092600000000     0.837040000000     0.302357   
C80      C      0.445470000000     0.983490000000     0.159390000000     0.0128812  
C81      C      0.534510000000     0.005190000000     0.337410000000     0.011569   
C82      C      0.483210000000     0.936810000000     0.345440000000    -0.0395325  
C83      C      0.507080000000     0.020740000000     0.296860000000    -0.096725   
C84      C      0.454900000000     0.952360000000     0.199630000000    -0.105653   
C85      C      0.456380000000     0.952170000000     0.303310000000    -0.0753061  
C86      C      0.491550000000     0.972780000000     0.228640000000     0.0310204  
C87      C      0.485660000000     0.981210000000     0.273400000000     0.0232953  
C88      C      0.525660000000     0.013290000000     0.163330000000     0.0127947  
C89      C      0.535040000000     0.983340000000     0.203940000000    -0.103459   
C90      C      0.515680000000     0.899320000000     0.334190000000     0.307723   
C91      C      0.070840000000     0.532290000000     0.670190000000     0.0120341  
C92      C      0.983400000000     0.506010000000     0.849370000000     0.0126264  
C93      C      0.024850000000     0.580510000000     0.855330000000    -0.040483   
C94      C      0.015300000000     0.491270000000     0.811990000000    -0.0977452  
C95      C      0.056840000000     0.562030000000     0.710440000000    -0.105059   
C96      C      0.054840000000     0.566990000000     0.814460000000    -0.0740362  
C97      C      0.024520000000     0.536650000000     0.740820000000     0.0315347  
C98      C      0.031520000000     0.531710000000     0.786000000000     0.0222794  
C99      C      0.999060000000     0.487130000000     0.678590000000     0.0137703  
C100     C      0.983720000000     0.517210000000     0.717070000000    -0.103375   
C101     C      0.987630000000     0.612400000000     0.841630000000     0.304588   
C102     C      0.018160000000     0.549980000000     0.178420000000     0.013106   
C103     C      0.955860000000     0.484870000000     0.359040000000     0.0113369  
C104     C      0.028950000000     0.530780000000     0.352130000000    -0.0426097  
C105     C      0.963170000000     0.466780000000     0.311120000000    -0.0977461  
C106     C      0.988460000000     0.557360000000     0.219970000000    -0.104962   
C107     C      0.033660000000     0.514660000000     0.303210000000    -0.0747271  
C108     C      0.975710000000     0.513030000000     0.241130000000     0.0281484  
C109     C      0.988760000000     0.500780000000     0.283440000000     0.0213763  
C110     C      0.984070000000     0.472580000000     0.168860000000     0.0135496  
C111     C      0.952610000000     0.480870000000     0.209240000000    -0.105969   
C112     C      0.013250000000     0.578890000000     0.353290000000     0.303902   
C113     C      0.374020000000     0.050690000000     0.512650000000     0.0136053  
C114     C      0.182150000000     0.984240000000     0.554000000000     0.0113422  
C115     C      0.183420000000     0.019680000000     0.475380000000    -0.0395837  
C116     C      0.225330000000     0.009790000000     0.566120000000    -0.0965403  
C117     C      0.327400000000     0.043790000000     0.491200000000    -0.103967   
C118     C      0.225910000000     0.046510000000     0.488670000000    -0.0756454  
C119     C      0.297940000000     0.014890000000     0.521300000000     0.0270318  
C120     C      0.252410000000     0.021710000000     0.524430000000     0.0243705  
C121     C      0.367330000000     0.977790000000     0.554630000000     0.0123184  
C122     C      0.319200000000     0.971220000000     0.536780000000    -0.101794   
C123     C      0.195140000000     0.979870000000     0.446070000000     0.306426   
C124     C      0.860350000000     0.010430000000     0.463170000000     0.0135763  
C125     C      0.680580000000     0.916860000000     0.495610000000     0.0114476  
C126     C      0.682620000000     0.985980000000     0.446120000000    -0.0408794  
C127     C      0.724990000000     0.930740000000     0.518600000000    -0.0971828  
C128     C      0.828200000000     0.973230000000     0.448370000000    -0.104606   
C129     C      0.728760000000     0.999130000000     0.466010000000    -0.0722708  
C130     C      0.799410000000     0.958090000000     0.487870000000     0.0267792  
C131     C      0.753300000000     0.959890000000     0.487560000000     0.0233741  
C132     C      0.858400000000     0.981200000000     0.543130000000     0.0119654  
C133     C      0.826210000000     0.943240000000     0.528860000000    -0.104574   
C134     C      0.687110000000     0.963470000000     0.400620000000     0.30332    
C135     C      0.005840000000     0.843110000000     0.552550000000     0.0118419  
C136     C      0.025370000000     0.662770000000     0.470730000000     0.0111092  
C137     C      0.954220000000     0.659240000000     0.518630000000    -0.0393653  
C138     C      0.037820000000     0.707940000000     0.491060000000    -0.0971481  
C139     C      0.971580000000     0.806690000000     0.539800000000    -0.104167   
C140     C      0.965720000000     0.705550000000     0.538960000000    -0.0752812  
C141     C      0.991910000000     0.777570000000     0.503290000000     0.0279231  
C142     C      0.996240000000     0.732390000000     0.507900000000     0.0244651  
C143     C      0.039430000000     0.840760000000     0.474060000000     0.0119311  
C144     C      0.007090000000     0.802800000000     0.461510000000    -0.103324   
C145     C      0.918800000000     0.662230000000     0.481900000000     0.306985   
C146     C      0.003800000000     0.344770000000     0.553970000000     0.013084   
C147     C      0.033240000000     0.162350000000     0.469170000000     0.0108907  
C148     C      0.998370000000     0.162080000000     0.547950000000    -0.0429567  
C149     C      0.061080000000     0.204010000000     0.481120000000    -0.0976155  
C150     C      0.990640000000     0.301110000000     0.530780000000    -0.103238   
C151     C      0.023420000000     0.206040000000     0.558380000000    -0.0728555  
C152     C      0.032040000000     0.276920000000     0.512920000000     0.0257781  
C153     C      0.036190000000     0.231520000000     0.515980000000     0.0218044  
C154     C      0.075340000000     0.349140000000     0.508030000000     0.0126867  
C155     C      0.063180000000     0.305200000000     0.483790000000    -0.103998   
C156     C      0.949030000000     0.170290000000     0.537660000000     0.303901   
Cu1      Cu     0.023630000000     0.002530000000     0.468860000000     0.849872   
Cu2      Cu     0.019210000000     0.002080000000     0.552130000000     0.842976   
Cu3      Cu     0.056000000000     0.510330000000     0.508400000000     0.842606   
Cu4      Cu     0.974080000000     0.498630000000     0.519680000000     0.851583   
Cu5      Cu     0.517850000000     0.940530000000     0.504360000000     0.852266   
Cu6      Cu     0.533450000000     0.021490000000     0.497810000000     0.843594   
Cu7      Cu     0.534690000000     0.003880000000     0.001960000000     0.850261   
Cu8      Cu     0.451320000000     0.005930000000     0.998990000000     0.848577   
Cu9      Cu     0.000200000000     0.487900000000     0.009430000000     0.842296   
Cu10     Cu     0.004870000000     0.570000000000     0.017060000000     0.862217   
Cu11     Cu     0.509700000000     0.505090000000     0.058040000000     0.85091    
Cu12     Cu     0.498760000000     0.502010000000     0.975330000000     0.847968   
H1       H      0.714690000000     0.560360000000     0.935310000000     0.0475856  
H2       H      0.827230000000     0.513820000000     0.069180000000     0.0410433  
H3       H      0.683510000000     0.449590000000     0.018050000000     0.0274528  
H4       H      0.731870000000     0.495860000000     0.067220000000     0.0509263  
H5       H      0.781000000000     0.459620000000     0.026160000000     0.0449226  
H6       H      0.780700000000     0.590400000000     0.958980000000     0.0478454  
H7       H      0.634330000000     0.535670000000     0.934610000000     0.0369245  
H8       H      0.861960000000     0.470780000000     0.045820000000     0.0368539  
H9       H      0.693960000000     0.541520000000     0.062470000000     0.062487   
H10      H      0.812990000000     0.545750000000     0.934600000000     0.0473244  
H11      H      0.650860000000     0.471610000000     0.063930000000     0.0366034  
H12      H      0.683460000000     0.582350000000     0.982650000000     0.0578229  
H13      H      0.815100000000     0.467710000000     0.977620000000     0.0540349  
H14      H      0.865250000000     0.593820000000     0.971740000000     0.0640924  
H15      H      0.673740000000     0.489830000000     0.937090000000     0.0311589  
H16      H      0.784730000000     0.617440000000     0.083770000000     0.180608   
H17      H      0.288160000000     0.542660000000     0.103120000000     0.0471126  
H18      H      0.179020000000     0.498440000000     0.964330000000     0.0419153  
H19      H      0.334950000000     0.440220000000     0.017760000000     0.0329102  
H20      H      0.275340000000     0.474460000000     0.972960000000     0.0504311  
H21      H      0.221350000000     0.442760000000     0.009260000000     0.0454439  
H22      H      0.222780000000     0.571660000000     0.080530000000     0.0455713  
H23      H      0.371410000000     0.534900000000     0.098130000000     0.0370408  
H24      H      0.141270000000     0.457460000000     0.986810000000     0.0378718  
H25      H      0.302820000000     0.527150000000     0.973650000000     0.0643956  
H26      H      0.187340000000     0.527240000000     0.100260000000     0.0460304  
H27      H      0.359230000000     0.468070000000     0.970030000000     0.0444452  
H28      H      0.311230000000     0.571140000000     0.054470000000     0.0586045  
H29      H      0.185400000000     0.451610000000     0.056100000000     0.0532465  
H30      H      0.141230000000     0.579830000000     0.061820000000     0.0619391  
H31      H      0.341670000000     0.482350000000     0.098250000000     0.0334144  
H32      H      0.227500000000     0.599740000000     0.953130000000     0.178996   
H33      H      0.521080000000     0.722310000000     0.934230000000     0.0573273  
H34      H      0.427480000000     0.836190000000     0.973590000000     0.0460432  
H35      H      0.531230000000     0.676910000000     0.066800000000     0.0323175  
H36      H      0.466050000000     0.725940000000     0.071370000000     0.046745   
H37      H      0.429840000000     0.786160000000     0.038090000000     0.0470553  
H38      H      0.555050000000     0.780630000000     0.959830000000     0.046004   
H39      H      0.529530000000     0.638890000000     0.942050000000     0.0381944  
H40      H      0.425840000000     0.867080000000     0.025590000000     0.0380576  
H41      H      0.435070000000     0.694060000000     0.029860000000     0.0555141  
H42      H      0.557150000000     0.806790000000     0.013170000000     0.0477493  
H43      H      0.480930000000     0.645100000000     0.078730000000     0.0369358  
H44      H      0.469490000000     0.693820000000     0.944380000000     0.0620947  
H45      H      0.478410000000     0.814240000000     0.061940000000     0.0524382  
H46      H      0.555540000000     0.865930000000     0.961850000000     0.0636465  
H47      H      0.563370000000     0.670470000000     0.980710000000     0.0292724  
H48      H      0.512290000000     0.870440000000     0.851910000000     0.176775   
H49      H      0.427860000000     0.230060000000     0.999400000000     0.0576975  
H50      H      0.483140000000     0.341430000000     0.087330000000     0.0467567  
H51      H      0.559320000000     0.174310000000     0.000340000000     0.0345934  
H52      H      0.557520000000     0.216420000000     0.070490000000     0.0459406  
H53      H      0.540550000000     0.284840000000     0.088920000000     0.0457487  
H54      H      0.467330000000     0.276840000000     0.960550000000     0.0448929  
H55      H      0.432010000000     0.148100000000     0.980630000000     0.0408689  
H56      H      0.538060000000     0.366610000000     0.084730000000     0.0371037  
H57      H      0.508660000000     0.186710000000     0.090680000000     0.0545687  
H58      H      0.522570000000     0.298710000000     0.961310000000     0.0473436  
H59      H      0.560320000000     0.137500000000     0.048360000000     0.0376667  
H60      H      0.432050000000     0.195310000000     0.047530000000     0.0603281  
H61      H      0.567960000000     0.305520000000     0.038580000000     0.0512349  
H62      H      0.475650000000     0.361160000000     0.955440000000     0.064578   
H63      H      0.477160000000     0.179580000000     0.955830000000     0.0331068  
H64      H      0.361420000000     0.365570000000     0.982790000000     0.176325   
H65      H      0.554340000000     0.066080000000     0.716850000000     0.0555049  
H66      H      0.441600000000     0.035790000000     0.824680000000     0.0443172  
H67      H      0.561680000000     0.933640000000     0.681960000000     0.0307225  
H68      H      0.489400000000     0.934230000000     0.721120000000     0.0462238  
H69      H      0.447170000000     0.972400000000     0.774300000000     0.0470725  
H70      H      0.574850000000     0.045610000000     0.782410000000     0.0462523  
H71      H      0.573950000000     0.051800000000     0.635520000000     0.0385074  
H72      H      0.435160000000     0.984420000000     0.855540000000     0.0406829  
H73      H      0.465790000000     0.974540000000     0.682340000000     0.0546353  
H74      H      0.572670000000     0.993110000000     0.809540000000     0.0502477  
H75      H      0.516040000000     0.919510000000     0.644630000000     0.0392813  
H76      H      0.506500000000     0.057870000000     0.681900000000     0.0609444  
H77      H      0.491080000000     0.946470000000     0.807710000000     0.0547521  
H78      H      0.565400000000     0.046090000000     0.867160000000     0.0638485  
H79      H      0.599030000000     0.012670000000     0.673980000000     0.0292522  
H80      H      0.517920000000     0.153820000000     0.866740000000     0.178246   
H81      H      0.422580000000     0.947880000000     0.218150000000     0.047589   
H82      H      0.565020000000     0.987330000000     0.324940000000     0.0498312  
H83      H      0.516340000000     0.047110000000     0.175950000000     0.0280934  
H84      H      0.561470000000     0.998470000000     0.225660000000     0.0516175  
H85      H      0.528290000000     0.041750000000     0.274420000000     0.0457821  
H86      H      0.443530000000     0.921950000000     0.285590000000     0.0464379  
H87      H      0.421300000000     0.966480000000     0.136290000000     0.0368827  
H88      H      0.546730000000     0.035140000000     0.356020000000     0.0427901  
H89      H      0.549520000000     0.951280000000     0.191530000000     0.0613303  
H90      H      0.426550000000     0.972050000000     0.314250000000     0.0464773  
H91      H      0.557280000000     0.017010000000     0.143380000000     0.0378826  
H92      H      0.466240000000     0.919110000000     0.187210000000     0.0569225  
H93      H      0.479520000000     0.042940000000     0.309110000000     0.0530745  
H94      H      0.457720000000     0.923380000000     0.369640000000     0.0603121  
H95      H      0.428980000000     0.014510000000     0.172060000000     0.0320426  
H96      H      0.566050000000     0.879900000000     0.291840000000     0.18113    
H97      H      0.088230000000     0.572090000000     0.728330000000     0.0476299  
H98      H      0.952340000000     0.520090000000     0.833710000000     0.0411136  
H99      H      0.016550000000     0.457560000000     0.693270000000     0.027493   
H100     H      0.960140000000     0.498970000000     0.739580000000     0.0501892  
H101     H      0.999230000000     0.465220000000     0.790730000000     0.0450255  
H102     H      0.063220000000     0.597630000000     0.794930000000     0.0478827  
H103     H      0.090210000000     0.553000000000     0.645720000000     0.0371273  
H104     H      0.972810000000     0.476100000000     0.869010000000     0.0379732  
H105     H      0.963800000000     0.545350000000     0.702660000000     0.0622747  
H106     H      0.087190000000     0.552820000000     0.827150000000     0.0473572  
H107     H      0.968840000000     0.474540000000     0.660250000000     0.0377735  
H108     H      0.039870000000     0.592750000000     0.697790000000     0.0576039  
H109     H      0.045190000000     0.474900000000     0.827670000000     0.0541578  
H110     H      0.047520000000     0.598710000000     0.879140000000     0.0650845  
H111     H      0.093670000000     0.505480000000     0.682800000000     0.0311992  
H112     H      0.939820000000     0.625460000000     0.794130000000     0.179491   
H113     H      0.004950000000     0.580780000000     0.243910000000     0.0583322  
H114     H      0.930440000000     0.512250000000     0.357880000000     0.0513693  
H115     H      0.014370000000     0.453880000000     0.180700000000     0.0307861  
H116     H      0.944890000000     0.447970000000     0.224780000000     0.0462839  
H117     H      0.929180000000     0.459670000000     0.296870000000     0.0468131  
H118     H      0.052180000000     0.539750000000     0.282710000000     0.0457517  
H119     H      0.023020000000     0.582460000000     0.160790000000     0.0416352  
H120     H      0.941240000000     0.457580000000     0.380030000000     0.0378537  
H121     H      0.920320000000     0.495750000000     0.197280000000     0.0565055  
H122     H      0.055720000000     0.484510000000     0.303190000000     0.0470213  
H123     H      0.965910000000     0.451070000000     0.144160000000     0.0365882  
H124     H      0.956820000000     0.574230000000     0.208960000000     0.0636106  
H125     H      0.982640000000     0.435000000000     0.312440000000     0.0509281  
H126     H      0.063640000000     0.530160000000     0.366690000000     0.0645488  
H127     H      0.052020000000     0.538560000000     0.190010000000     0.0289163  
H128     H      0.034590000000     0.642950000000     0.361590000000     0.180244   
H129     H      0.312420000000     0.077550000000     0.486330000000     0.0459077  
H130     H      0.191630000000     0.949480000000     0.544620000000     0.0429363  
H131     H      0.365020000000     0.993600000000     0.588550000000     0.0282898  
H132     H      0.299250000000     0.953420000000     0.562810000000     0.0495249  
H133     H      0.244710000000     0.990740000000     0.591680000000     0.0455131  
H134     H      0.245820000000     0.052840000000     0.457500000000     0.0449044  
H135     H      0.395570000000     0.069540000000     0.488440000000     0.0368279  
H136     H      0.160590000000     0.981790000000     0.584650000000     0.0383087  
H137     H      0.320720000000     0.948510000000     0.507080000000     0.0634443  
H138     H      0.215590000000     0.079580000000     0.502470000000     0.0452773  
H139     H      0.383450000000     0.944500000000     0.559300000000     0.0379742  
H140     H      0.331150000000     0.027490000000     0.457670000000     0.0574964  
H141     H      0.215440000000     0.041580000000     0.582930000000     0.0519651  
H142     H      0.162380000000     0.042940000000     0.454750000000     0.0598861  
H143     H      0.370130000000     0.071400000000     0.543640000000     0.0310081  
H144     H      0.233640000000     0.923710000000     0.441880000000     0.179074   
H145     H      0.808520000000     0.983690000000     0.418340000000     0.0586011  
H146     H      0.688370000000     0.893240000000     0.467660000000     0.0480975  
H147     H      0.837850000000     0.009550000000     0.556210000000     0.033223   
H148     H      0.804540000000     0.935040000000     0.558310000000     0.0464656  
H149     H      0.743270000000     0.899480000000     0.527610000000     0.048018   
H150     H      0.748630000000     0.017160000000     0.440060000000     0.045905   
H151     H      0.883160000000     0.019120000000     0.434660000000     0.0409498  
H152     H      0.659230000000     0.898850000000     0.520630000000     0.0385217  
H153     H      0.846170000000     0.912940000000     0.520140000000     0.0551814  
H154     H      0.722710000000     0.024050000000     0.493240000000     0.0485108  
H155     H      0.880020000000     0.968870000000     0.571210000000     0.0389808  
H156     H      0.848810000000     0.944220000000     0.437040000000     0.062344   
H157     H      0.717440000000     0.949490000000     0.550130000000     0.0516664  
H158     H      0.664000000000     0.017780000000     0.440010000000     0.061873   
H159     H      0.839900000000     0.040680000000     0.471030000000     0.0314185  
H160     H      0.655750000000     0.954910000000     0.340190000000     0.182742   
H161     H      0.963350000000     0.787900000000     0.571070000000     0.0467497  
H162     H      0.007510000000     0.668820000000     0.438290000000     0.0471666  
H163     H      0.072100000000     0.825670000000     0.484710000000     0.0312654  
H164     H      0.022370000000     0.781270000000     0.435160000000     0.0522768  
H165     H      0.058000000000     0.727010000000     0.466150000000     0.0473844  
H166     H      0.933380000000     0.723300000000     0.545800000000     0.0473969  
H167     H      0.989760000000     0.865610000000     0.577760000000     0.0385098  
H168     H      0.056950000000     0.644340000000     0.462440000000     0.0452305  
H169     H      0.976560000000     0.817780000000     0.445650000000     0.0622318  
H170     H      0.983370000000     0.700820000000     0.571760000000     0.0460961  
H171     H      0.046220000000     0.861440000000     0.443610000000     0.04238    
H172     H      0.939990000000     0.822380000000     0.527030000000     0.0565778  
H173     H      0.060480000000     0.702140000000     0.520430000000     0.0542723  
H174     H      0.939390000000     0.639110000000     0.546620000000     0.0606067  
H175     H      0.035520000000     0.827020000000     0.568970000000     0.0317637  
H176     H      0.863780000000     0.630970000000     0.455670000000     0.184548   
H177     H      0.969650000000     0.281020000000     0.554130000000     0.0572678  
H178     H      0.002470000000     0.172890000000     0.450400000000     0.0463474  
H179     H      0.097960000000     0.341290000000     0.536990000000     0.0307979  
H180     H      0.095490000000     0.287670000000     0.476490000000     0.0455017  
H181     H      0.066590000000     0.222780000000     0.449230000000     0.0459443  
H182     H      0.004200000000     0.225910000000     0.583460000000     0.0435113  
H183     H      0.972580000000     0.363290000000     0.563350000000     0.0384193  
H184     H      0.053770000000     0.141290000000     0.445960000000     0.0387031  
H185     H      0.046100000000     0.312730000000     0.451230000000     0.05446    
H186     H      0.055550000000     0.197320000000     0.575790000000     0.0464251  
H187     H      0.094360000000     0.370880000000     0.484180000000     0.036476   
H188     H      0.968510000000     0.309140000000     0.501540000000     0.0643519  
H189     H      0.094560000000     0.193860000000     0.494780000000     0.0506286  
H190     H      0.999600000000     0.141930000000     0.579530000000     0.0641116  
H191     H      0.021710000000     0.336390000000     0.585900000000     0.0282918  
H192     H      0.885380000000     0.148560000000     0.551160000000     0.180082   
N1       N      0.866860000000     0.535730000000     0.013850000000    -0.162235   
N2       N      0.638910000000     0.501310000000     0.998480000000    -0.175024   
N3       N      0.138380000000     0.522910000000     0.017790000000    -0.162116   
N4       N      0.369640000000     0.499560000000     0.034880000000    -0.173446   
N5       N      0.488300000000     0.870870000000     0.988310000000    -0.162203   
N6       N      0.508120000000     0.638050000000     0.011700000000    -0.174582   
N7       N      0.499100000000     0.369140000000     0.023380000000    -0.162067   
N8       N      0.498050000000     0.138990000000     0.010430000000    -0.173392   
N9       N      0.498090000000     0.019330000000     0.865490000000    -0.161426   
N10      N      0.545610000000     0.985250000000     0.635610000000    -0.174398   
N11      N      0.508080000000     0.974490000000     0.366400000000    -0.160586   
N12      N      0.487820000000     0.995740000000     0.136020000000    -0.174354   
N13      N      0.004980000000     0.540710000000     0.877670000000    -0.161406   
N14      N      0.030950000000     0.511280000000     0.648990000000    -0.17431    
N15      N      0.998120000000     0.502150000000     0.379210000000    -0.160317   
N16      N      0.998850000000     0.515330000000     0.148510000000    -0.173598   
N17      N      0.157760000000     0.004820000000     0.515660000000    -0.161255   
N18      N      0.394080000000     0.007340000000     0.524990000000    -0.173803   
N19      N      0.657410000000     0.956460000000     0.477250000000    -0.161244   
N20      N      0.885270000000     0.996890000000     0.504140000000    -0.172622   
N21      N      0.995250000000     0.637170000000     0.501000000000    -0.160477   
N22      N      0.021280000000     0.867420000000     0.511910000000    -0.173355   
N23      N      0.019460000000     0.137400000000     0.510030000000    -0.161183   
N24      N      0.034370000000     0.371380000000     0.525200000000    -0.173994   
O1       O      0.091570000000     0.004610000000     0.475760000000    -0.390203   
O2       O      0.954730000000     0.001540000000     0.469840000000    -0.395587   
O3       O      0.022930000000     0.070300000000     0.472600000000    -0.395504   
O4       O      0.025100000000     0.934270000000     0.473520000000    -0.392583   
O5       O      0.019600000000     0.934650000000     0.548590000000    -0.400316   
O6       O      0.017750000000     0.070150000000     0.547690000000    -0.392146   
O7       O      0.951010000000     0.000040000000     0.545010000000    -0.393913   
O8       O      0.088390000000     0.002410000000     0.550950000000    -0.39457    
O9       O      0.043800000000     0.506160000000     0.441410000000    -0.396253   
O10      O      0.059980000000     0.515320000000     0.577110000000    -0.396429   
O11      O      0.061570000000     0.442260000000     0.512300000000    -0.39638    
O12      O      0.042270000000     0.576470000000     0.503770000000    -0.395733   
O13      O      0.968480000000     0.566560000000     0.515680000000    -0.384755   
O14      O      0.987740000000     0.432410000000     0.523920000000    -0.399116   
O15      O      0.986210000000     0.503100000000     0.586650000000    -0.400069   
O16      O      0.969990000000     0.494230000000     0.451060000000    -0.391912   
O17      O      0.529410000000     0.946910000000     0.570980000000    -0.403122   
O18      O      0.506690000000     0.941880000000     0.436500000000    -0.386684   
O19      O      0.585700000000     0.931860000000     0.493900000000    -0.389556   
O20      O      0.452300000000     0.957460000000     0.515960000000    -0.396306   
O21      O      0.465950000000     0.030390000000     0.507760000000    -0.398525   
O22      O      0.598710000000     0.005070000000     0.486830000000    -0.397695   
O23      O      0.523020000000     0.014500000000     0.430620000000    -0.396388   
O24      O      0.543870000000     0.019930000000     0.566140000000    -0.396043   
O25      O      0.527890000000     0.996670000000     0.069820000000    -0.39885    
O26      O      0.533270000000     0.013380000000     0.934140000000    -0.392282   
O27      O      0.532700000000     0.070760000000     0.010750000000    -0.399301   
O28      O      0.528400000000     0.936560000000     0.992430000000    -0.393215   
O29      O      0.453140000000     0.938430000000     0.996560000000    -0.398933   
O30      O      0.457920000000     0.073800000000     0.001660000000    -0.396566   
O31      O      0.458120000000     0.008590000000     0.930830000000    -0.395909   
O32      O      0.452680000000     0.001890000000     0.067400000000    -0.399047   
O33      O      0.000510000000     0.485150000000     0.077630000000    -0.400641   
O34      O      0.998780000000     0.498420000000     0.941850000000    -0.399443   
O35      O      0.069190000000     0.489070000000     0.008140000000    -0.39713    
O36      O      0.932290000000     0.495150000000     0.012250000000    -0.399708   
O37      O      0.936230000000     0.569700000000     0.012360000000    -0.385508   
O38      O      0.072440000000     0.562480000000     0.021110000000    -0.392656   
O39      O      0.009320000000     0.571980000000     0.948420000000    -0.383391   
O40      O      0.001360000000     0.559430000000     0.085010000000    -0.392785   
O41      O      0.508560000000     0.437480000000     0.056830000000    -0.400107   
O42      O      0.509480000000     0.572550000000     0.051470000000    -0.400866   
O43      O      0.441330000000     0.506420000000     0.063010000000    -0.398826   
O44      O      0.577050000000     0.502770000000     0.044860000000    -0.399774   
O45      O      0.567050000000     0.502170000000     0.970170000000    -0.400287   
O46      O      0.431470000000     0.501680000000     0.988470000000    -0.395945   
O47      O      0.500940000000     0.570030000000     0.976650000000    -0.397382   
O48      O      0.497800000000     0.434340000000     0.982360000000    -0.393208   
O49      O      0.793240000000     0.597920000000     0.059130000000    -0.343312   
O50      O      0.853210000000     0.639210000000     0.041040000000    -0.237995   
O51      O      0.216240000000     0.580060000000     0.976520000000    -0.34362    
O52      O      0.162340000000     0.627830000000     0.997240000000    -0.241395   
O53      O      0.521970000000     0.872120000000     0.883080000000    -0.340259   
O54      O      0.482390000000     0.811820000000     0.902900000000    -0.250907   
O55      O      0.393330000000     0.365510000000     0.975580000000    -0.343279   
O56      O      0.410880000000     0.323420000000     0.035120000000    -0.250619   
O57      O      0.527700000000     0.123080000000     0.869970000000    -0.340142   
O58      O      0.500990000000     0.103530000000     0.802470000000    -0.250867   
O59      O      0.544770000000     0.903360000000     0.299260000000    -0.342367   
O60      O      0.516290000000     0.865570000000     0.357490000000    -0.24124    
O61      O      0.964100000000     0.605680000000     0.803110000000    -0.343374   
O62      O      0.977770000000     0.643670000000     0.866340000000    -0.238493   
O63      O      0.043420000000     0.611780000000     0.361580000000    -0.345419   
O64      O      0.973810000000     0.588310000000     0.345450000000    -0.241653   
O65      O      0.225890000000     0.949470000000     0.460090000000    -0.343203   
O66      O      0.176120000000     0.974780000000     0.409790000000    -0.244774   
O67      O      0.654420000000     0.969440000000     0.369370000000    -0.340553   
O68      O      0.718950000000     0.938610000000     0.392520000000    -0.247763   
O69      O      0.886540000000     0.630400000000     0.479150000000    -0.334357   
O70      O      0.920020000000     0.692260000000     0.453870000000    -0.244466   
O71      O      0.917210000000     0.144560000000     0.557540000000    -0.340628   
O72      O      0.937790000000     0.198990000000     0.510460000000    -0.251091   


