data_structure

_audit_creation_method RASPA-1.0
_audit_creation_date 2023-6-4
_audit_author_name 'Poobodin Mano'

_cell_length_a    19.9873
_cell_length_b    19.7125
_cell_length_c    28.699
_cell_angle_alpha 89.9989
_cell_angle_beta  89.9989
_cell_angle_gamma 94.7655
_cell_volume      11268.3

_symmetry_cell_setting          triclinic
_symmetry_space_group_name_Hall 'P 1'
_symmetry_space_group_name_H-M  'P 1'
_symmetry_Int_Tables_number     1

_symmetry_equiv_pos_as_xyz 'x,y,z'

loop_
_atom_site_label
_atom_site_type_symbol
_atom_site_fract_x
_atom_site_fract_y
_atom_site_fract_z
_atom_site_charge
C1       C      0.078670000000     0.849190000000     0.018650000000     0.400332   
C2       C      0.989110000000     0.095520000000     0.036040000000     0.400574   
C3       C      0.158940000000     0.023660000000     0.028960000000     0.404097   
C4       C      0.906080000000     0.915430000000     0.025140000000     0.400522   
C5       C      0.093800000000     0.003930000000     0.495350000000     0.401018   
C6       C      0.854830000000     0.105560000000     0.491590000000     0.403159   
C7       C      0.031310000000     0.181920000000     0.483800000000     0.404951   
C8       C      0.920360000000     0.928900000000     0.503770000000     0.401679   
C9       C      0.527500000000     0.462130000000     0.940720000000     0.479707   
C10      C      0.554990000000     0.498680000000     0.116410000000     0.479549   
C11      C      0.646290000000     0.410220000000     0.028980000000     0.468507   
C12      C      0.436480000000     0.541260000000     0.029330000000     0.466099   
C13      C      0.488480000000     0.573900000000     0.442910000000     0.479673   
C14      C      0.479220000000     0.551950000000     0.619350000000     0.47401    
C15      C      0.564140000000     0.467390000000     0.528660000000     0.469236   
C16      C      0.409000000000     0.658550000000     0.535940000000     0.470466   
C17      C      0.568350000000     0.490790000000     0.862420000000     0.0182693  
C18      C      0.421270000000     0.496770000000     0.685550000000     0.0171929  
C19      C      0.532540000000     0.573530000000     0.696750000000     0.0354254  
C20      C      0.409240000000     0.501210000000     0.737940000000    -0.106796   
C21      C      0.563610000000     0.458390000000     0.814070000000    -0.104582   
C22      C      0.518880000000     0.569230000000     0.749570000000    -0.108481   
C23      C      0.492870000000     0.460650000000     0.795970000000     0.0201146  
C24      C      0.475650000000     0.505850000000     0.762720000000     0.0244786  
C25      C      0.445830000000     0.453210000000     0.875670000000     0.0189758  
C26      C      0.441770000000     0.421220000000     0.826850000000    -0.104959   
C27      C      0.552400000000     0.645530000000     0.685330000000     0.0459474  
C28      C      0.535780000000     0.633600000000     0.372590000000     0.0166607  
C29      C      0.493790000000     0.483240000000     0.190280000000     0.0138218  
C30      C      0.612060000000     0.534480000000     0.193050000000     0.0185151  
C31      C      0.471430000000     0.538960000000     0.222110000000    -0.101842   
C32      C      0.574110000000     0.603050000000     0.332360000000    -0.104425   
C33      C      0.592210000000     0.590240000000     0.227080000000    -0.0996375  
C34      C      0.526220000000     0.560170000000     0.301020000000     0.0207661  
C35      C      0.529150000000     0.564200000000     0.253480000000     0.0167175  
C36      C      0.442020000000     0.541010000000     0.365210000000     0.0169384  
C37      C      0.480000000000     0.507430000000     0.326590000000    -0.103694   
C38      C      0.675160000000     0.557630000000     0.166950000000     0.102114   
C39      C      0.385990000000     0.776150000000     0.558870000000     0.0144044  
C40      C      0.171650000000     0.932870000000     0.455020000000     0.0138102  
C41      C      0.190660000000     0.966470000000     0.539980000000     0.0319475  
C42      C      0.193980000000     0.863460000000     0.469180000000    -0.102709   
C43      C      0.365070000000     0.833860000000     0.527500000000    -0.10128    
C44      C      0.259390000000     0.937430000000     0.531430000000    -0.105721   
C45      C      0.293470000000     0.820340000000     0.509560000000     0.0190396  
C46      C      0.251440000000     0.871100000000     0.503900000000     0.0217889  
C47      C      0.294800000000     0.695700000000     0.525110000000     0.016164   
C48      C      0.275920000000     0.749370000000     0.490150000000    -0.102079   
C49      C      0.151750000000     0.923940000000     0.574460000000     0.049718   
C50      C      0.645950000000     0.690690000000     0.493710000000    -0.00764427 
C51      C      0.887460000000     0.835830000000     0.557340000000     0.0105874  
C52      C      0.874260000000     0.821180000000     0.466850000000     0.0323954  
C53      C      0.872850000000     0.758670000000     0.561580000000    -0.104409   
C54      C      0.705440000000     0.744370000000     0.495750000000    -0.0901175  
C55      C      0.855420000000     0.745280000000     0.476630000000    -0.108283   
C56      C      0.756570000000     0.725280000000     0.531370000000     0.0148721  
C57      C      0.824030000000     0.735950000000     0.523880000000     0.0257885  
C58      C      0.668040000000     0.650790000000     0.571830000000    -0.00739841 
C59      C      0.727640000000     0.703970000000     0.578410000000    -0.0905491  
C60      C      0.925800000000     0.825890000000     0.429780000000     0.0487068  
C61      C      0.589070000000     0.352090000000     0.553530000000     0.0151873  
C62      C      0.779320000000     0.175830000000     0.448740000000     0.0121249  
C63      C      0.743210000000     0.131530000000     0.526860000000     0.0352175  
C64      C      0.773350000000     0.249630000000     0.464130000000    -0.102506   
C65      C      0.610670000000     0.290890000000     0.526190000000    -0.102286   
C66      C      0.732830000000     0.203650000000     0.544260000000    -0.107716   
C67      C      0.681660000000     0.303430000000     0.507330000000     0.0192093  
C68      C      0.723090000000     0.251940000000     0.503740000000     0.0204376  
C69      C      0.676490000000     0.429580000000     0.512090000000     0.0161634  
C70      C      0.696050000000     0.370350000000     0.481740000000    -0.102916   
C71      C      0.756670000000     0.086250000000     0.566110000000     0.0487063  
C72      C      0.319790000000     0.435270000000     0.563580000000     0.00198443 
C73      C      0.105230000000     0.264600000000     0.439630000000     0.0113402  
C74      C      0.060640000000     0.299910000000     0.515110000000     0.0369708  
C75      C      0.177650000000     0.270390000000     0.458000000000    -0.100786   
C76      C      0.250390000000     0.398640000000     0.554550000000    -0.091532   
C77      C      0.129590000000     0.305110000000     0.538570000000    -0.106804   
C78      C      0.245450000000     0.351790000000     0.511950000000     0.0142393  
C79      C      0.186110000000     0.314070000000     0.502290000000     0.0195274  
C80      C      0.368170000000     0.390930000000     0.494900000000     0.00103777 
C81      C      0.302530000000     0.356040000000     0.476390000000    -0.0904716  
C82      C      0.005630000000     0.289610000000     0.549390000000     0.045412   
C83      C      0.114920000000     0.747430000000     0.057180000000     0.0122629  
C84      C      0.378960000000     0.632830000000     0.993720000000     0.0147035  
C85      C      0.314640000000     0.547940000000     0.047040000000     0.0352923  
C86      C      0.336220000000     0.689030000000     0.009800000000    -0.104066   
C87      C      0.147470000000     0.681100000000     0.047330000000    -0.101752   
C88      C      0.267800000000     0.603030000000     0.060780000000    -0.107678   
C89      C      0.211200000000     0.694750000000     0.018470000000     0.0161118  
C90      C      0.267360000000     0.660620000000     0.025990000000     0.0211125  
C91      C      0.137940000000     0.768030000000     0.971020000000     0.0118892  
C92      C      0.209400000000     0.747950000000     0.980150000000    -0.100113   
C93      C      0.321970000000     0.505400000000     0.088900000000     0.045008   
C94      C      0.812070000000     0.855430000000     0.067940000000     0.0117249  
C95      C      0.617580000000     0.659490000000     0.975310000000    -0.00194566 
C96      C      0.620570000000     0.652410000000     0.058620000000    -0.060333   
C97      C      0.662520000000     0.726490000000     0.973880000000    -0.0861102  
C98      C      0.735790000000     0.856980000000     0.068300000000    -0.104397   
C99      C      0.669770000000     0.715580000000     0.065180000000    -0.0624881  
C100     C      0.707860000000     0.824740000000     0.023800000000     0.024547   
C101     C      0.676750000000     0.759950000000     0.021420000000     0.00585064 
C102     C      0.809680000000     0.865910000000     0.979020000000     0.0112934  
C103     C      0.732980000000     0.865370000000     0.981540000000    -0.103843   
C104     C      0.620370000000     0.600570000000     0.097490000000     0.214205   
C105     C      0.758930000000     0.388540000000     0.999120000000     0.0151099  
C106     C      0.940190000000     0.179590000000     0.086750000000     0.0114208  
C107     C      0.972110000000     0.214960000000     0.006290000000     0.0322137  
C108     C      0.868340000000     0.198910000000     0.080010000000    -0.100571   
C109     C      0.824450000000     0.368180000000     0.021240000000    -0.103534   
C110     C      0.902360000000     0.240300000000     0.997250000000    -0.104959   
C111     C      0.816260000000     0.298280000000     0.044090000000     0.0209612  
C112     C      0.864510000000     0.252770000000     0.042300000000     0.0176716  
C113     C      0.692850000000     0.302870000000     0.050380000000     0.0172798  
C114     C      0.756550000000     0.288400000000     0.076570000000    -0.10431    
C115     C      0.003950000000     0.197850000000     0.961910000000     0.0490507  
C116     C      0.264480000000     0.061760000000     0.987430000000     0.015406   
C117     C      0.409140000000     0.328080000000     0.080990000000     0.00174042 
C118     C      0.419340000000     0.327960000000     0.997700000000    -0.0563871  
C119     C      0.379880000000     0.254030000000     0.083150000000    -0.086645   
C120     C      0.290760000000     0.136900000000     0.986430000000    -0.103044   
C121     C      0.393870000000     0.253040000000     0.991660000000    -0.0635539  
C122     C      0.316750000000     0.164770000000     0.033500000000     0.0233877  
C123     C      0.358330000000     0.223820000000     0.035620000000     0.00584207 
C124     C      0.262230000000     0.058610000000     0.073590000000     0.0153252  
C125     C      0.284200000000     0.134240000000     0.077950000000    -0.102457   
C126     C      0.465200000000     0.357780000000     0.959690000000     0.211078   
Cu1      Cu     0.031790000000     0.977400000000     0.984250000000     0.842803   
Cu2      Cu     0.032380000000     0.965240000000     0.069820000000     0.849144   
Cu3      Cu     0.973270000000     0.049390000000     0.451050000000     0.851392   
Cu4      Cu     0.976550000000     0.062310000000     0.536450000000     0.849482   
Cu5      Cu     0.582870000000     0.535560000000     0.019810000000     1.15059    
Cu6      Cu     0.503480000000     0.420380000000     0.037320000000     1.20985    
Cu7      Cu     0.542080000000     0.611150000000     0.534900000000     1.1797     
Cu8      Cu     0.430520000000     0.514230000000     0.527220000000     1.20457    
H1       H      0.602690000000     0.481900000000     0.790340000000     0.0460131  
H2       H      0.433970000000     0.444240000000     0.677040000000     0.0299092  
H3       H      0.428370000000     0.505260000000     0.873180000000     0.0243444  
H4       H      0.389220000000     0.420580000000     0.814880000000     0.045088   
H5       H      0.375610000000     0.455900000000     0.747300000000     0.0449849  
H6       H      0.567020000000     0.576210000000     0.768770000000     0.0482528  
H7       H      0.619300000000     0.484920000000     0.876790000000     0.0331571  
H8       H      0.372830000000     0.503770000000     0.667780000000     0.0336894  
H9       H      0.453950000000     0.367310000000     0.829110000000     0.0585849  
H10      H      0.490800000000     0.613010000000     0.760730000000     0.0548967  
H11      H      0.409650000000     0.424860000000     0.899190000000     0.0252927  
H12      H      0.576420000000     0.544150000000     0.689130000000     0.0279791  
H13      H      0.574730000000     0.404230000000     0.817290000000     0.0559215  
H14      H      0.382360000000     0.547000000000     0.745950000000     0.0518949  
H15      H      0.562460000000     0.546250000000     0.859270000000     0.0299913  
H16      H      0.600320000000     0.646780000000     0.313650000000     0.0449394  
H17      H      0.506020000000     0.438980000000     0.211820000000     0.0296394  
H18      H      0.407330000000     0.575440000000     0.348950000000     0.0268686  
H19      H      0.443930000000     0.476740000000     0.304360000000     0.0446216  
H20      H      0.424340000000     0.521710000000     0.240350000000     0.0467093  
H21      H      0.635710000000     0.603060000000     0.250360000000     0.050426   
H22      H      0.572950000000     0.658890000000     0.397070000000     0.0326374  
H23      H      0.450810000000     0.466220000000     0.167400000000     0.0441286  
H24      H      0.511770000000     0.470190000000     0.342810000000     0.0527362  
H25      H      0.581930000000     0.636900000000     0.207450000000     0.0529377  
H26      H      0.410940000000     0.500950000000     0.384540000000     0.0348622  
H27      H      0.624730000000     0.490780000000     0.215120000000     0.0340496  
H28      H      0.612360000000     0.570770000000     0.346530000000     0.0517383  
H29      H      0.458250000000     0.582260000000     0.200020000000     0.0539048  
H30      H      0.505630000000     0.673650000000     0.358130000000     0.0269073  
H31      H      0.374000000000     0.882430000000     0.546770000000     0.0451882  
H32      H      0.213980000000     0.962970000000     0.437490000000     0.0292919  
H33      H      0.262770000000     0.698660000000     0.556640000000     0.0309063  
H34      H      0.221440000000     0.738980000000     0.483050000000     0.0463008  
H35      H      0.209760000000     0.837800000000     0.436960000000     0.0463463  
H36      H      0.292530000000     0.975160000000     0.511560000000     0.0500261  
H37      H      0.440900000000     0.783710000000     0.565460000000     0.0413126  
H38      H      0.130550000000     0.924280000000     0.429050000000     0.0422206  
H39      H      0.303580000000     0.743590000000     0.456970000000     0.0523019  
H40      H      0.283030000000     0.930070000000     0.565930000000     0.0497658  
H41      H      0.283390000000     0.644580000000     0.509260000000     0.0376017  
H42      H      0.199730000000     0.018250000000     0.555270000000     0.0318448  
H43      H      0.399030000000     0.837810000000     0.496780000000     0.0525854  
H44      H      0.150780000000     0.832410000000     0.484920000000     0.0587573  
H45      H      0.360290000000     0.780110000000     0.593020000000     0.0312149  
H46      H      0.725430000000     0.751970000000     0.460030000000     0.0427754  
H47      H      0.844980000000     0.860790000000     0.573190000000     0.0393261  
H48      H      0.686290000000     0.602750000000     0.558340000000     0.0327848  
H49      H      0.764460000000     0.679520000000     0.600400000000     0.043466   
H50      H      0.855080000000     0.746450000000     0.597380000000     0.0471998  
H51      H      0.824020000000     0.721180000000     0.448300000000     0.0479541  
H52      H      0.607120000000     0.711960000000     0.471740000000     0.0338666  
H53      H      0.932440000000     0.851150000000     0.578940000000     0.0437277  
H54      H      0.711320000000     0.749250000000     0.596980000000     0.0564176  
H55      H      0.901450000000     0.716960000000     0.476540000000     0.0545165  
H56      H      0.645070000000     0.639750000000     0.606390000000     0.0394412  
H57      H      0.829200000000     0.843480000000     0.452630000000     0.0315706  
H58      H      0.687100000000     0.793720000000     0.506560000000     0.0534952  
H59      H      0.920340000000     0.733720000000     0.557030000000     0.0530653  
H60      H      0.661230000000     0.643390000000     0.477040000000     0.0304798  
H61      H      0.602710000000     0.244990000000     0.548320000000     0.0447591  
H62      H      0.730610000000     0.155500000000     0.433350000000     0.0288198  
H63      H      0.710860000000     0.434840000000     0.542610000000     0.0293732  
H64      H      0.750290000000     0.380310000000     0.473460000000     0.045491   
H65      H      0.757500000000     0.277990000000     0.433100000000     0.0446426  
H66      H      0.691060000000     0.201020000000     0.569720000000     0.0502014  
H67      H      0.534400000000     0.344110000000     0.561000000000     0.0342321  
H68      H      0.818140000000     0.175790000000     0.420990000000     0.0376608  
H69      H      0.667170000000     0.369010000000     0.448600000000     0.0505367  
H70      H      0.778460000000     0.223950000000     0.563570000000     0.0654301  
H71      H      0.683710000000     0.477280000000     0.491320000000     0.033145   
H72      H      0.694600000000     0.110980000000     0.511450000000     0.0258436  
H73      H      0.576350000000     0.282090000000     0.495910000000     0.0512776  
H74      H      0.823130000000     0.272780000000     0.475870000000     0.0565205  
H75      H      0.615580000000     0.353790000000     0.587640000000     0.0275933  
H76      H      0.236300000000     0.369020000000     0.586540000000     0.0425503  
H77      H      0.094350000000     0.314580000000     0.424640000000     0.0281329  
H78      H      0.394000000000     0.355730000000     0.517850000000     0.0280258  
H79      H      0.313070000000     0.304160000000     0.464830000000     0.041047   
H80      H      0.209460000000     0.291040000000     0.428800000000     0.0434464  
H81      H      0.129940000000     0.348100000000     0.563500000000     0.0487711  
H82      H      0.312780000000     0.482690000000     0.583220000000     0.0305385  
H83      H      0.100600000000     0.226360000000     0.411090000000     0.0369611  
H84      H      0.286890000000     0.385230000000     0.445640000000     0.0480203  
H85      H      0.136060000000     0.257970000000     0.558800000000     0.0615972  
H86      H      0.402050000000     0.404160000000     0.465060000000     0.028158   
H87      H      0.054730000000     0.350040000000     0.498380000000     0.0249871  
H88      H      0.214230000000     0.438040000000     0.549730000000     0.0479057  
H89      H      0.192580000000     0.218620000000     0.466130000000     0.0526563  
H90      H      0.350560000000     0.403270000000     0.585610000000     0.0270304  
H91      H      0.157200000000     0.659060000000     0.082000000000     0.0448938  
H92      H      0.357770000000     0.611540000000     0.960450000000     0.0256241  
H93      H      0.140300000000     0.808960000000     0.944280000000     0.0376301  
H94      H      0.241550000000     0.794280000000     0.990420000000     0.0515044  
H95      H      0.334520000000     0.725860000000     0.980730000000     0.043982   
H96      H      0.217040000000     0.575970000000     0.064410000000     0.0481015  
H97      H      0.064910000000     0.735250000000     0.073540000000     0.0334905  
H98      H      0.430130000000     0.656500000000     0.985760000000     0.0334045  
H99      H      0.228890000000     0.727710000000     0.947100000000     0.0446457  
H100     H      0.282720000000     0.625950000000     0.095100000000     0.0540771  
H101     H      0.107090000000     0.723450000000     0.956480000000     0.0307972  
H102     H      0.289100000000     0.515130000000     0.019740000000     0.0272003  
H103     H      0.111650000000     0.644980000000     0.028240000000     0.0508096  
H104     H      0.361870000000     0.716660000000     0.039410000000     0.0520336  
H105     H      0.146110000000     0.777860000000     0.083100000000     0.0362185  
H106     H      0.715400000000     0.833520000000     0.100830000000     0.0452283  
H107     H      0.563810000000     0.670170000000     0.976670000000     0.029961   
H108     H      0.822940000000     0.814310000000     0.968720000000     0.0318446  
H109     H      0.711210000000     0.847060000000     0.947950000000     0.0450292  
H110     H      0.636580000000     0.761170000000     0.950830000000     0.0405588  
H111     H      0.649760000000     0.744050000000     0.094710000000     0.0374561  
H112     H      0.832260000000     0.883490000000     0.099190000000     0.0381353  
H113     H      0.625080000000     0.631010000000     0.942620000000     0.0318604  
H114     H      0.719340000000     0.918650000000     0.985280000000     0.0517599  
H115     H      0.720460000000     0.700290000000     0.074290000000     0.0529325  
H116     H      0.827830000000     0.901660000000     0.950910000000     0.0387844  
H117     H      0.568770000000     0.669420000000     0.057720000000     0.0425837  
H118     H      0.723390000000     0.910920000000     0.069640000000     0.0512466  
H119     H      0.711290000000     0.716560000000     0.957670000000     0.0488272  
H120     H      0.824680000000     0.801770000000     0.071510000000     0.032846   
H121     H      0.864620000000     0.373920000000     0.994760000000     0.0459702  
H122     H      0.971220000000     0.224540000000     0.100720000000     0.0292884  
H123     H      0.683120000000     0.264060000000     0.022510000000     0.0307953  
H124     H      0.748020000000     0.235520000000     0.089870000000     0.0447851  
H125     H      0.851980000000     0.217910000000     0.114300000000     0.0443434  
H126     H      0.909050000000     0.285790000000     0.974660000000     0.0490162  
H127     H      0.764690000000     0.443760000000     0.990650000000     0.0389724  
H128     H      0.939520000000     0.138770000000     0.113490000000     0.0377382  
H129     H      0.764160000000     0.323350000000     0.106860000000     0.0545847  
H130     H      0.871430000000     0.200830000000     0.977220000000     0.059021   
H131     H      0.650260000000     0.296950000000     0.075410000000     0.0382778  
H132     H      0.003780000000     0.258910000000     0.021010000000     0.0268128  
H133     H      0.839440000000     0.405790000000     0.048970000000     0.0549168  
H134     H      0.835250000000     0.152900000000     0.070390000000     0.0524257  
H135     H      0.751410000000     0.360620000000     0.965620000000     0.0291881  
H136     H      0.330830000000     0.140900000000     0.959570000000     0.0461915  
H137     H      0.368210000000     0.362660000000     0.077750000000     0.0379171  
H138     H      0.307890000000     0.029900000000     0.073040000000     0.0261763  
H139     H      0.319330000000     0.138680000000     0.107970000000     0.0440437  
H140     H      0.336550000000     0.253240000000     0.107450000000     0.0425308  
H141     H      0.359290000000     0.251110000000     0.961320000000     0.0392085  
H142     H      0.235420000000     0.049220000000     0.955110000000     0.0383427  
H143     H      0.436630000000     0.340830000000     0.113850000000     0.0327304  
H144     H      0.239720000000     0.162230000000     0.086470000000     0.0546694  
H145     H      0.436590000000     0.222130000000     0.983880000000     0.0492285  
H146     H      0.232360000000     0.041840000000     0.104800000000     0.0361255  
H147     H      0.375140000000     0.358950000000     0.997640000000     0.043015   
H148     H      0.249610000000     0.167580000000     0.974820000000     0.0566357  
H149     H      0.418190000000     0.222640000000     0.098280000000     0.0474628  
H150     H      0.308390000000     0.030530000000     0.987370000000     0.0263356  
N1       N      0.475400000000     0.545660000000     0.667070000000    -0.187235   
N2       N      0.515620000000     0.459340000000     0.893660000000    -0.188029   
N3       N      0.570340000000     0.711700000000     0.675000000000    -0.107355   
N4       N      0.553870000000     0.509730000000     0.163730000000    -0.189238   
N5       N      0.489800000000     0.581340000000     0.395490000000    -0.189857   
N6       N      0.736530000000     0.549810000000     0.187770000000    -0.116798   
N7       N      0.151210000000     0.970380000000     0.496500000000    -0.174498   
N8       N      0.365780000000     0.708790000000     0.538570000000    -0.186001   
N9       N      0.115760000000     0.884670000000     0.605930000000    -0.106561   
N10      N      0.897400000000     0.861610000000     0.508810000000    -0.172181   
N11      N      0.617590000000     0.675510000000     0.540160000000    -0.227166   
N12      N      0.973320000000     0.830200000000     0.395930000000    -0.108167   
N13      N      0.794750000000     0.134470000000     0.489530000000    -0.173719   
N14      N      0.606920000000     0.416720000000     0.528840000000    -0.187902   
N15      N      0.768640000000     0.044510000000     0.602220000000    -0.102386   
N16      N      0.059420000000     0.247200000000     0.478570000000    -0.175914   
N17      N      0.354240000000     0.452770000000     0.519800000000    -0.236272   
N18      N      0.954860000000     0.280320000000     0.580710000000    -0.104618   
N19      N      0.380130000000     0.576810000000     0.027860000000    -0.187313   
N20      N      0.107480000000     0.788870000000     0.014980000000    -0.174285   
N21      N      0.326690000000     0.467640000000     0.128080000000    -0.113546   
N22      N      0.634970000000     0.618090000000     0.015070000000    -0.223157   
N23      N      0.842340000000     0.883980000000     0.024230000000    -0.173677   
N24      N      0.672720000000     0.605170000000     0.130610000000    -0.151768   
N25      N      0.967730000000     0.159660000000     0.041640000000    -0.173285   
N26      N      0.699830000000     0.371120000000     0.028960000000    -0.185479   
N27      N      0.033310000000     0.182850000000     0.920980000000    -0.104856   
N28      N      0.455340000000     0.336520000000     0.041800000000    -0.233068   
N29      N      0.225250000000     0.046830000000     0.029920000000    -0.175632   
N30      N      0.484670000000     0.318430000000     0.922740000000    -0.139493   
O1       O      0.066630000000     0.883290000000     0.981880000000    -0.396418   
O2       O      0.999100000000     0.071570000000     0.995250000000    -0.38619    
O3       O      0.128080000000     0.017410000000     0.989830000000    -0.397268   
O4       O      0.935470000000     0.934590000000     0.986950000000    -0.396407   
O5       O      0.936780000000     0.923810000000     0.064210000000    -0.401582   
O6       O      0.128460000000     0.007100000000     0.067160000000    -0.40179    
O7       O      0.998620000000     0.059340000000     0.072250000000    -0.400515   
O8       O      0.066030000000     0.872320000000     0.059220000000    -0.40035    
O9       O      0.062480000000     0.008790000000     0.456660000000    -0.399462   
O10      O      0.884240000000     0.091450000000     0.453500000000    -0.400431   
O11      O      0.020920000000     0.144110000000     0.447730000000    -0.401212   
O12      O      0.926810000000     0.955410000000     0.462960000000    -0.393025   
O13      O      0.936770000000     0.964630000000     0.540000000000    -0.394335   
O14      O      0.016270000000     0.158780000000     0.524580000000    -0.393638   
O15      O      0.882630000000     0.095190000000     0.531010000000    -0.38417    
O16      O      0.069780000000     0.027080000000     0.533180000000    -0.390762   
O17      O      0.566690000000     0.511290000000     0.955980000000    -0.479819   
O18      O      0.587680000000     0.539200000000     0.087510000000    -0.533668   
O19      O      0.652910000000     0.472240000000     0.016300000000    -0.462242   
O20      O      0.493580000000     0.570170000000     0.018150000000    -0.476062   
O21      O      0.431580000000     0.478790000000     0.040280000000    -0.481017   
O22      O      0.589090000000     0.383630000000     0.041170000000    -0.487683   
O23      O      0.517610000000     0.448570000000     0.100540000000    -0.484305   
O24      O      0.498600000000     0.419030000000     0.969790000000    -0.542037   
O25      O      0.526540000000     0.613100000000     0.468230000000    -0.485705   
O26      O      0.527990000000     0.587170000000     0.600270000000    -0.473526   
O27      O      0.587710000000     0.529140000000     0.525170000000    -0.483223   
O28      O      0.471750000000     0.672620000000     0.541700000000    -0.469707   
O29      O      0.385950000000     0.597580000000     0.527870000000    -0.480675   
O30      O      0.501240000000     0.452810000000     0.532880000000    -0.483022   
O31      O      0.434170000000     0.521300000000     0.594080000000    -0.48701    
O32      O      0.448850000000     0.528280000000     0.461670000000    -0.488222   


