data_structure

_audit_creation_method RASPA-1.0
_audit_creation_date 2023-5-22
_audit_author_name 'Poobodin Mano'

_cell_length_a    29.4252
_cell_length_b    29.8148
_cell_length_c    29.3694
_cell_angle_alpha 89.9998
_cell_angle_beta  89.9998
_cell_angle_gamma 89.9998
_cell_volume      25766

_symmetry_cell_setting          triclinic
_symmetry_space_group_name_Hall 'P 1'
_symmetry_space_group_name_H-M  'P 1'
_symmetry_Int_Tables_number     1

_symmetry_equiv_pos_as_xyz 'x,y,z'

loop_
_atom_site_label
_atom_site_type_symbol
_atom_site_fract_x
_atom_site_fract_y
_atom_site_fract_z
_atom_site_charge
C1       C      0.106480000000     0.012540000000     0.982870000000     0.401379   
C2       C      0.927230000000     0.034020000000     0.986790000000     0.401238   
C3       C      0.027440000000     0.111970000000     0.979980000000     0.40085    
C4       C      0.006450000000     0.935080000000     0.989720000000     0.39987    
C5       C      0.110980000000     0.970990000000     0.500470000000     0.400692   
C6       C      0.930220000000     0.968950000000     0.509960000000     0.401244   
C7       C      0.018780000000     0.059240000000     0.508400000000     0.400701   
C8       C      0.021760000000     0.880890000000     0.501840000000     0.401322   
C9       C      0.990060000000     0.511150000000     0.912880000000     0.398604   
C10      C      0.985800000000     0.528460000000     0.093710000000     0.400283   
C11      C      0.988240000000     0.430560000000     0.012450000000     0.401293   
C12      C      0.987700000000     0.608250000000     0.993860000000     0.400887   
C13      C      0.985500000000     0.455210000000     0.410920000000     0.400526   
C14      C      0.989430000000     0.490420000000     0.589040000000     0.39844    
C15      C      0.990520000000     0.385870000000     0.518670000000     0.401467   
C16      C      0.983910000000     0.560510000000     0.481440000000     0.401773   
C17      C      0.513480000000     0.009320000000     0.126930000000     0.40248    
C18      C      0.522900000000     0.018040000000     0.946240000000     0.401878   
C19      C      0.607990000000     0.005690000000     0.041420000000     0.402043   
C20      C      0.428160000000     0.021700000000     0.032370000000     0.401762   
C21      C      0.504940000000     0.020740000000     0.622640000000     0.402226   
C22      C      0.550650000000     0.007980000000     0.447770000000     0.402253   
C23      C      0.615380000000     0.022900000000     0.556340000000     0.402229   
C24      C      0.440220000000     0.005450000000     0.514360000000     0.400581   
C25      C      0.517010000000     0.980140000000     0.871320000000     0.0119388  
C26      C      0.481230000000     0.067160000000     0.688820000000     0.0113765  
C27      C      0.485630000000     0.983340000000     0.695430000000     0.0131764  
C28      C      0.506020000000     0.072630000000     0.734620000000    -0.101466   
C29      C      0.479870000000     0.990630000000     0.836690000000    -0.101092   
C30      C      0.514180000000     0.987310000000     0.738440000000    -0.101696   
C31      C      0.493730000000     0.031500000000     0.809260000000     0.0175945  
C32      C      0.502310000000     0.030360000000     0.763470000000     0.0185159  
C33      C      0.536320000000     0.062440000000     0.875880000000     0.0107704  
C34      C      0.501350000000     0.072930000000     0.838450000000    -0.101304   
C35      C      0.505230000000     0.964390000000     0.197810000000     0.0111367  
C36      C      0.567130000000     0.045760000000     0.374560000000     0.0135411  
C37      C      0.574160000000     0.962280000000     0.380860000000     0.0114873  
C38      C      0.535390000000     0.041260000000     0.333980000000    -0.10168    
C39      C      0.543400000000     0.956190000000     0.232630000000    -0.101297   
C40      C      0.547090000000     0.956120000000     0.336390000000    -0.101281   
C41      C      0.550800000000     0.998150000000     0.261230000000     0.0177244  
C42      C      0.546690000000     0.998760000000     0.307680000000     0.0183579  
C43      C      0.518850000000     0.047660000000     0.201580000000     0.0121649  
C44      C      0.559490000000     0.039810000000     0.232790000000    -0.101229   
C45      C      0.034760000000     0.497070000000     0.659600000000     0.0101349  
C46      C      0.948220000000     0.510330000000     0.839850000000     0.0107657  
C47      C      0.034940000000     0.512080000000     0.841560000000     0.0101785  
C48      C      0.950750000000     0.480950000000     0.797190000000    -0.101848   
C49      C      0.034250000000     0.527150000000     0.701980000000    -0.101816   
C50      C      0.035430000000     0.483650000000     0.798020000000    -0.10173    
C51      C      0.992420000000     0.516590000000     0.730040000000     0.0198484  
C52      C      0.992970000000     0.493370000000     0.770530000000     0.0197629  
C53      C      0.947790000000     0.495850000000     0.661860000000     0.0107695  
C54      C      0.949730000000     0.526900000000     0.703300000000    -0.101923   
C55      C      0.941980000000     0.537410000000     0.165530000000     0.0129379  
C56      C      0.026170000000     0.438790000000     0.338650000000     0.0132463  
C57      C      0.942110000000     0.440100000000     0.339840000000     0.0130252  
C58      C      0.028860000000     0.473040000000     0.299960000000    -0.099593   
C59      C      0.940030000000     0.502320000000     0.203610000000    -0.0999152  
C60      C      0.939730000000     0.473440000000     0.300170000000    -0.0996653  
C61      C      0.984320000000     0.497440000000     0.230570000000     0.0167828  
C62      C      0.984290000000     0.479020000000     0.273720000000     0.0166485  
C63      C      0.026140000000     0.539810000000     0.167150000000     0.0130268  
C64      C      0.028880000000     0.504140000000     0.204510000000    -0.0998287  
C65      C      0.368750000000     0.039340000000     0.487550000000     0.0125355  
C66      C      0.185010000000     0.952220000000     0.535730000000     0.0123731  
C67      C      0.181610000000     0.983130000000     0.456050000000     0.0116633  
C68      C      0.223630000000     0.984270000000     0.547690000000    -0.101256   
C69      C      0.322240000000     0.025050000000     0.468600000000    -0.102237   
C70      C      0.220450000000     0.015940000000     0.466650000000    -0.101558   
C71      C      0.296050000000     0.997540000000     0.503390000000     0.0172574  
C72      C      0.249640000000     0.997990000000     0.505220000000     0.0178707  
C73      C      0.371030000000     0.958780000000     0.516230000000     0.0128486  
C74      C      0.323690000000     0.968530000000     0.535630000000    -0.101716   
C75      C      0.860340000000     0.950170000000     0.552750000000     0.0133485  
C76      C      0.687700000000     0.064350000000     0.547420000000     0.0117714  
C77      C      0.685210000000     0.992950000000     0.592320000000     0.01383    
C78      C      0.725270000000     0.045530000000     0.516430000000    -0.100998   
C79      C      0.827580000000     0.984840000000     0.572220000000    -0.10141    
C80      C      0.723080000000     0.972590000000     0.563450000000    -0.100961   
C81      C      0.797280000000     0.003580000000     0.534970000000     0.01815    
C82      C      0.751650000000     0.008880000000     0.540880000000     0.0175972  
C83      C      0.855390000000     0.985930000000     0.475280000000     0.0117416  
C84      C      0.822190000000     0.021570000000     0.493520000000    -0.101588   
C85      C      0.942100000000     0.632310000000     0.484690000000     0.0127606  
C86      C      0.042920000000     0.810980000000     0.461590000000     0.0121425  
C87      C      0.008100000000     0.808370000000     0.540020000000     0.0126694  
C88      C      0.013000000000     0.771750000000     0.446480000000    -0.101308   
C89      C      0.957690000000     0.673490000000     0.511640000000    -0.101392   
C90      C      0.975300000000     0.771290000000     0.525060000000    -0.10202    
C91      C      0.993830000000     0.698800000000     0.485230000000     0.0177225  
C92      C      0.996610000000     0.744380000000     0.486880000000     0.0184321  
C93      C      0.017350000000     0.627650000000     0.444610000000     0.0124962  
C94      C      0.033400000000     0.670760000000     0.467890000000    -0.10088    
C95      C      0.998120000000     0.129910000000     0.470670000000     0.013006   
C96      C      0.032590000000     0.320150000000     0.549030000000     0.0124725  
C97      C      0.951300000000     0.312640000000     0.524890000000     0.0126222  
C98      C      0.045610000000     0.277810000000     0.522610000000    -0.101002   
C99      C      0.975190000000     0.173500000000     0.485930000000    -0.102151   
C100     C      0.962400000000     0.271660000000     0.495580000000    -0.101136   
C101     C      0.008040000000     0.202260000000     0.513080000000     0.0169964  
C102     C      0.004620000000     0.247970000000     0.513280000000     0.0175194  
C103     C      0.030760000000     0.129560000000     0.551030000000     0.0125511  
C104     C      0.044920000000     0.177940000000     0.539640000000    -0.101827   
C105     C      0.180180000000     0.021860000000     0.943370000000     0.0118203  
C106     C      0.352420000000     0.990850000000     0.050660000000     0.012981   
C107     C      0.360040000000     0.066390000000     0.012590000000     0.0114814  
C108     C      0.315620000000     0.977350000000     0.016840000000    -0.101501   
C109     C      0.221200000000     0.048830000000     0.960800000000    -0.101804   
C110     C      0.323050000000     0.053720000000     0.977850000000    -0.101636   
C111     C      0.245820000000     0.022390000000     0.997350000000     0.0185232  
C112     C      0.291890000000     0.018610000000     0.998310000000     0.0182795  
C113     C      0.175370000000     0.980010000000     0.017810000000     0.0129947  
C114     C      0.216260000000     0.005680000000     0.036120000000    -0.101605   
C115     C      0.851890000000     0.021460000000     0.951290000000     0.0114557  
C116     C      0.681860000000     0.036010000000     0.067420000000     0.0133182  
C117     C      0.678170000000     0.962270000000     0.026150000000     0.0118914  
C118     C      0.719180000000     0.052560000000     0.035590000000    -0.101382   
C119     C      0.815190000000     0.990560000000     0.971390000000    -0.101187   
C120     C      0.715800000000     0.977330000000     0.993200000000    -0.101372   
C121     C      0.791110000000     0.014070000000     0.010400000000     0.0177624  
C122     C      0.745050000000     0.013310000000     0.015170000000     0.0180137  
C123     C      0.858440000000     0.063130000000     0.025430000000     0.0128463  
C124     C      0.822160000000     0.033290000000     0.046820000000    -0.101273   
C125     C      0.946310000000     0.680640000000     0.995880000000     0.0119159  
C126     C      0.015060000000     0.860910000000     0.953710000000     0.0126372  
C127     C      0.983610000000     0.868800000000     0.034140000000     0.0125341  
C128     C      0.032670000000     0.815360000000     0.970440000000    -0.101602   
C129     C      0.957240000000     0.721690000000     0.025490000000    -0.101532   
C130     C      0.963640000000     0.822110000000     0.024790000000    -0.102014   
C131     C      0.997800000000     0.746810000000     0.006170000000     0.0178526  
C132     C      0.998100000000     0.792340000000     0.000930000000     0.016925   
C133     C      0.027300000000     0.677160000000     0.968530000000     0.012428   
C134     C      0.039540000000     0.718150000000     0.997170000000    -0.101287   
C135     C      0.949640000000     0.357430000000     0.002300000000     0.0118866  
C136     C      0.057630000000     0.182600000000     0.012660000000     0.0125467  
C137     C      0.015070000000     0.183250000000     0.938500000000     0.0118953  
C138     C      0.028810000000     0.221370000000     0.030600000000    -0.10113    
C139     C      0.966280000000     0.319320000000     0.971300000000    -0.101496   
C140     C      0.984280000000     0.221360000000     0.955420000000    -0.101363   
C141     C      0.004920000000     0.294080000000     0.994050000000     0.0181088  
C142     C      0.008540000000     0.248530000000     0.991770000000     0.0178119  
C143     C      0.025980000000     0.361660000000     0.040560000000     0.0128121  
C144     C      0.043700000000     0.323140000000     0.011270000000    -0.101429   
Cu1      Cu     0.015720000000     0.021480000000     0.943010000000     0.837765   
Cu2      Cu     0.018080000000     0.025550000000     0.026640000000     0.837539   
Cu3      Cu     0.018450000000     0.971910000000     0.463180000000     0.839008   
Cu4      Cu     0.022690000000     0.968270000000     0.547080000000     0.841273   
Cu5      Cu     0.029850000000     0.519640000000     0.004330000000     0.837435   
Cu6      Cu     0.946050000000     0.519180000000     0.002350000000     0.837553   
Cu7      Cu     0.029280000000     0.474420000000     0.498650000000     0.835032   
Cu8      Cu     0.945520000000     0.471930000000     0.501130000000     0.841257   
Cu9      Cu     0.514360000000     0.972530000000     0.034470000000     0.841116   
Cu10     Cu     0.521810000000     0.054840000000     0.038710000000     0.841783   
Cu11     Cu     0.531080000000     0.973180000000     0.539480000000     0.841407   
Cu12     Cu     0.524610000000     0.055350000000     0.530940000000     0.841829   
H1       H      0.471020000000     0.960580000000     0.816530000000     0.042646   
H2       H      0.444010000000     0.068410000000     0.695350000000     0.027323   
H3       H      0.570200000000     0.058610000000     0.859520000000     0.027607   
H4       H      0.514520000000     0.102220000000     0.819450000000     0.0425858  
H5       H      0.490190000000     0.102140000000     0.751240000000     0.0426576  
H6       H      0.510950000000     0.956130000000     0.758410000000     0.0432094  
H7       H      0.506570000000     0.950320000000     0.891440000000     0.0359097  
H8       H      0.489820000000     0.096210000000     0.666740000000     0.036123   
H9       H      0.468620000000     0.082900000000     0.854420000000     0.0500394  
H10      H      0.550600000000     0.989090000000     0.728500000000     0.053078   
H11      H      0.538480000000     0.091650000000     0.899260000000     0.0362788  
H12      H      0.449220000000     0.980610000000     0.705320000000     0.0267037  
H13      H      0.448210000000     0.998950000000     0.855590000000     0.0518091  
H14      H      0.542500000000     0.080110000000     0.728450000000     0.0505285  
H15      H      0.495050000000     0.951870000000     0.677490000000     0.0357056  
H16      H      0.548760000000     0.971410000000     0.852760000000     0.0273209  
H17      H      0.533380000000     0.926300000000     0.252580000000     0.0427347  
H18      H      0.602640000000     0.048820000000     0.361870000000     0.0261934  
H19      H      0.488120000000     0.053600000000     0.222820000000     0.0276865  
H20      H      0.568080000000     0.070520000000     0.251940000000     0.0426071  
H21      H      0.536090000000     0.072770000000     0.314340000000     0.0432685  
H22      H      0.563480000000     0.927680000000     0.318470000000     0.0427461  
H23      H      0.503160000000     0.935130000000     0.174480000000     0.0361743  
H24      H      0.558840000000     0.077180000000     0.393120000000     0.0356246  
H25      H      0.589880000000     0.033480000000     0.211190000000     0.0522616  
H26      H      0.511480000000     0.946650000000     0.344560000000     0.0504332  
H27      H      0.525090000000     0.078370000000     0.181090000000     0.0358519  
H28      H      0.610990000000     0.962210000000     0.372280000000     0.0268388  
H29      H      0.575410000000     0.948000000000     0.214330000000     0.0510562  
H30      H      0.499930000000     0.038240000000     0.346720000000     0.053684   
H31      H      0.567750000000     0.932990000000     0.403370000000     0.0357569  
H32      H      0.472460000000     0.966140000000     0.216620000000     0.0273878  
H33      H      0.066990000000     0.524380000000     0.719980000000     0.0427054  
H34      H      0.941810000000     0.545620000000     0.829370000000     0.0295677  
H35      H      0.941940000000     0.460880000000     0.673710000000     0.0299288  
H36      H      0.917660000000     0.525170000000     0.722680000000     0.042795   
H37      H      0.918460000000     0.482660000000     0.778200000000     0.042908   
H38      H      0.067910000000     0.488690000000     0.780050000000     0.0427429  
H39      H      0.063090000000     0.508230000000     0.637270000000     0.0361078  
H40      H      0.918540000000     0.499160000000     0.860360000000     0.0358864  
H41      H      0.951380000000     0.562150000000     0.691000000000     0.0499345  
H42      H      0.035340000000     0.447630000000     0.807880000000     0.0499919  
H43      H      0.917950000000     0.505710000000     0.640890000000     0.035669   
H44      H      0.040520000000     0.547780000000     0.832080000000     0.0290322  
H45      H      0.032480000000     0.562720000000     0.690680000000     0.0497122  
H46      H      0.953490000000     0.445310000000     0.808050000000     0.0502805  
H47      H      0.064140000000     0.501630000000     0.863100000000     0.0361261  
H48      H      0.042450000000     0.462120000000     0.670360000000     0.0293825  
H49      H      0.911470000000     0.512900000000     0.225810000000     0.0424017  
H50      H      0.025300000000     0.404620000000     0.323410000000     0.0259944  
H51      H      0.025110000000     0.573390000000     0.183680000000     0.0263194  
H52      H      0.056670000000     0.515350000000     0.227380000000     0.0422472  
H53      H      0.056460000000     0.460900000000     0.277330000000     0.0422112  
H54      H      0.912150000000     0.460870000000     0.277780000000     0.0423369  
H55      H      0.911500000000     0.533610000000     0.143510000000     0.035465   
H56      H      0.057540000000     0.441110000000     0.359600000000     0.0353299  
H57      H      0.038860000000     0.471610000000     0.188970000000     0.050892   
H58      H      0.929540000000     0.506800000000     0.313640000000     0.0510449  
H59      H      0.057610000000     0.538340000000     0.146270000000     0.0354198  
H60      H      0.941090000000     0.405540000000     0.325540000000     0.0258474  
H61      H      0.931460000000     0.469200000000     0.188520000000     0.051103   
H62      H      0.039030000000     0.506070000000     0.314260000000     0.0510657  
H63      H      0.911460000000     0.444240000000     0.361560000000     0.0352919  
H64      H      0.940160000000     0.571270000000     0.181380000000     0.0261491  
H65      H      0.303600000000     0.056260000000     0.459680000000     0.0431735  
H66      H      0.200160000000     0.919800000000     0.524710000000     0.026698   
H67      H      0.390120000000     0.938210000000     0.541390000000     0.0344649  
H68      H      0.327170000000     0.985930000000     0.568920000000     0.0505408  
H69      H      0.244980000000     0.968530000000     0.574350000000     0.0427997  
H70      H      0.239900000000     0.020620000000     0.434620000000     0.042865   
H71      H      0.388330000000     0.056560000000     0.460250000000     0.0316035  
H72      H      0.164680000000     0.945440000000     0.566870000000     0.0358363  
H73      H      0.306580000000     0.935700000000     0.541050000000     0.043798   
H74      H      0.206110000000     0.048940000000     0.476810000000     0.0504138  
H75      H      0.367650000000     0.938550000000     0.484590000000     0.0298334  
H76      H      0.196300000000     0.952450000000     0.440310000000     0.0284807  
H77      H      0.327080000000     0.004840000000     0.437170000000     0.049236   
H78      H      0.208870000000     0.015020000000     0.563180000000     0.0521929  
H79      H      0.158700000000     0.998990000000     0.430610000000     0.0357168  
H80      H      0.363700000000     0.064190000000     0.515360000000     0.0328903  
H81      H      0.809080000000     0.970240000000     0.601480000000     0.0431066  
H82      H      0.703930000000     0.082880000000     0.576000000000     0.027928   
H83      H      0.835350000000     0.957800000000     0.460560000000     0.0285827  
H84      H      0.798540000000     0.030170000000     0.465370000000     0.0429003  
H85      H      0.747720000000     0.074010000000     0.506890000000     0.0427622  
H86      H      0.742630000000     0.948790000000     0.584680000000     0.0430705  
H87      H      0.884250000000     0.939110000000     0.579830000000     0.0343826  
H88      H      0.666810000000     0.088490000000     0.527570000000     0.0348964  
H89      H      0.841260000000     0.052320000000     0.503180000000     0.0499084  
H90      H      0.707280000000     0.952170000000     0.536010000000     0.0541921  
H91      H      0.875990000000     0.001070000000     0.447500000000     0.0343923  
H92      H      0.701020000000     0.009190000000     0.622520000000     0.025717   
H93      H      0.847830000000     0.013050000000     0.586420000000     0.0535605  
H94      H      0.709910000000     0.031510000000     0.484920000000     0.050828   
H95      H      0.662460000000     0.965900000000     0.604980000000     0.0338648  
H96      H      0.840270000000     0.920310000000     0.542160000000     0.0259227  
H97      H      0.927170000000     0.694650000000     0.517680000000     0.0429966  
H98      H      0.076320000000     0.797200000000     0.472490000000     0.0266701  
H99      H      0.002810000000     0.636870000000     0.410930000000     0.0262171  
H100     H      0.056170000000     0.688930000000     0.444250000000     0.0429936  
H101     H      0.031380000000     0.751910000000     0.420490000000     0.0430447  
H102     H      0.968120000000     0.750350000000     0.555520000000     0.0430381  
H103     H      0.917450000000     0.613200000000     0.505840000000     0.0350331  
H104     H      0.049330000000     0.833340000000     0.431980000000     0.0351913  
H105     H      0.054560000000     0.661360000000     0.497760000000     0.052503   
H106     H      0.942850000000     0.786310000000     0.513080000000     0.0507229  
H107     H      0.047080000000     0.605540000000     0.438140000000     0.034633   
H108     H      0.038540000000     0.792670000000     0.555890000000     0.028829   
H109     H      0.971710000000     0.662860000000     0.545100000000     0.0507937  
H110     H      0.982540000000     0.785600000000     0.429050000000     0.0521884  
H111     H      0.990920000000     0.829140000000     0.566360000000     0.0348579  
H112     H      0.924220000000     0.643770000000     0.453390000000     0.0282165  
H113     H      0.963710000000     0.191120000000     0.454620000000     0.0430408  
H114     H      0.024970000000     0.310250000000     0.584750000000     0.0264079  
H115     H      0.059670000000     0.112220000000     0.567980000000     0.0326405  
H116     H      0.076730000000     0.177480000000     0.519230000000     0.0494564  
H117     H      0.073140000000     0.260690000000     0.541590000000     0.042511   
H118     H      0.931970000000     0.249630000000     0.496400000000     0.0427208  
H119     H      0.972860000000     0.109470000000     0.451570000000     0.0331044  
H120     H      0.062210000000     0.343260000000     0.550040000000     0.0352662  
H121     H      0.051590000000     0.195230000000     0.572500000000     0.0435556  
H122     H      0.968320000000     0.282330000000     0.459800000000     0.0509541  
H123     H      0.002080000000     0.130170000000     0.575690000000     0.0314652  
H124     H      0.940740000000     0.300940000000     0.559280000000     0.0278228  
H125     H      0.945000000000     0.165600000000     0.507230000000     0.0496326  
H126     H      0.060180000000     0.287990000000     0.489260000000     0.0520068  
H127     H      0.922010000000     0.330530000000     0.509340000000     0.035629   
H128     H      0.026410000000     0.137790000000     0.446850000000     0.0311195  
H129     H      0.243420000000     0.055820000000     0.931040000000     0.042928   
H130     H      0.335570000000     0.004690000000     0.081520000000     0.0264932  
H131     H      0.187750000000     0.947950000000     0.002910000000     0.0260948  
H132     H      0.234410000000     0.984770000000     0.061420000000     0.043466   
H133     H      0.292520000000     0.952430000000     0.032540000000     0.0432179  
H134     H      0.304600000000     0.084970000000     0.968750000000     0.0427937  
H135     H      0.160400000000     0.043290000000     0.919540000000     0.0349086  
H136     H      0.371600000000     0.960500000000     0.061360000000     0.0349932  
H137     H      0.203680000000     0.035430000000     0.055160000000     0.0530774  
H138     H      0.339090000000     0.040040000000     0.946520000000     0.0496329  
H139     H      0.152330000000     0.971330000000     0.046490000000     0.0349763  
H140     H      0.343900000000     0.085090000000     0.041100000000     0.0290359  
H141     H      0.209500000000     0.081310000000     0.975210000000     0.0503694  
H142     H      0.332070000000     0.959780000000     0.987790000000     0.052772   
H143     H      0.384850000000     0.089140000000     0.995770000000     0.0345417  
H144     H      0.192870000000     0.992310000000     0.924040000000     0.028713   
H145     H      0.791550000000     0.981840000000     0.943260000000     0.0429803  
H146     H      0.698270000000     0.020790000000     0.097850000000     0.0256382  
H147     H      0.841480000000     0.093560000000     0.011580000000     0.0259639  
H148     H      0.804470000000     0.051920000000     0.074140000000     0.0429302  
H149     H      0.740590000000     0.077230000000     0.053780000000     0.0429976  
H150     H      0.735940000000     0.947030000000     0.984360000000     0.0429141  
H151     H      0.871410000000     0.002360000000     0.925320000000     0.0357147  
H152     H      0.661400000000     0.065050000000     0.079400000000     0.0343532  
H153     H      0.839380000000     0.004760000000     0.064030000000     0.0529907  
H154     H      0.700350000000     0.990890000000     0.961530000000     0.0506133  
H155     H      0.882580000000     0.074380000000     0.052210000000     0.0348863  
H156     H      0.694090000000     0.943550000000     0.054790000000     0.0280094  
H157     H      0.831080000000     0.959160000000     0.984150000000     0.0503492  
H158     H      0.703030000000     0.071340000000     0.007170000000     0.0534257  
H159     H      0.655000000000     0.938950000000     0.007890000000     0.0350658  
H160     H      0.834850000000     0.049980000000     0.933800000000     0.028217   
H161     H      0.926040000000     0.742590000000     0.026730000000     0.0427544  
H162     H      0.042010000000     0.877110000000     0.932830000000     0.0339853  
H163     H      0.018630000000     0.688810000000     0.933610000000     0.0266094  
H164     H      0.067720000000     0.736310000000     0.980240000000     0.0426591  
H165     H      0.064870000000     0.820260000000     0.989600000000     0.0499087  
H166     H      0.953640000000     0.807660000000     0.058220000000     0.0431054  
H167     H      0.919040000000     0.661000000000     0.012880000000     0.0353796  
H168     H      0.985100000000     0.855630000000     0.931230000000     0.0306144  
H169     H      0.052990000000     0.706500000000     0.030500000000     0.0522486  
H170     H      0.932820000000     0.825320000000     0.003150000000     0.0492942  
H171     H      0.057640000000     0.655150000000     0.965590000000     0.0355124  
H172     H      0.011570000000     0.865940000000     0.059460000000     0.0318926  
H173     H      0.965270000000     0.710650000000     0.060730000000     0.0505306  
H174     H      0.039650000000     0.794620000000     0.939760000000     0.0437805  
H175     H      0.956830000000     0.890300000000     0.049610000000     0.0324043  
H176     H      0.932920000000     0.692490000000     0.962560000000     0.0284909  
H177     H      0.936630000000     0.297210000000     0.964580000000     0.0429846  
H178     H      0.088940000000     0.196910000000     0.997200000000     0.0261258  
H179     H      0.013100000000     0.347320000000     0.073060000000     0.0262363  
H180     H      0.070100000000     0.304690000000     0.030450000000     0.0429561  
H181     H      0.049280000000     0.241220000000     0.054920000000     0.0429464  
H182     H      0.975470000000     0.242200000000     0.925320000000     0.0430482  
H183     H      0.923820000000     0.377370000000     0.983470000000     0.0351322  
H184     H      0.068370000000     0.161050000000     0.041620000000     0.0349282  
H185     H      0.061220000000     0.337630000000     0.981130000000     0.0529056  
H186     H      0.952440000000     0.207180000000     0.969830000000     0.0506333  
H187     H      0.054570000000     0.384500000000     0.049180000000     0.0347853  
H188     H      0.044140000000     0.198140000000     0.919570000000     0.0281933  
H189     H      0.978290000000     0.333340000000     0.938360000000     0.0504433  
H190     H      0.000220000000     0.207150000000     0.050690000000     0.0527661  
H191     H      0.995380000000     0.162090000000     0.914370000000     0.0356248  
H192     H      0.932840000000     0.342480000000     0.032650000000     0.028346   
N1       N      0.492080000000     0.023760000000     0.667300000000    -0.17521    
N2       N      0.525110000000     0.020180000000     0.899750000000    -0.174961   
N3       N      0.563120000000     0.005280000000     0.402980000000    -0.175431   
N4       N      0.511990000000     0.007260000000     0.173420000000    -0.175104   
N5       N      0.991110000000     0.508530000000     0.866260000000    -0.173705   
N6       N      0.990580000000     0.497260000000     0.635200000000    -0.173716   
N7       N      0.984610000000     0.445800000000     0.365270000000    -0.174555   
N8       N      0.984710000000     0.533760000000     0.140040000000    -0.174464   
N9       N      0.157410000000     0.970360000000     0.498080000000    -0.1746     
N10      N      0.394870000000     0.000960000000     0.505470000000    -0.175374   
N11      N      0.660560000000     0.027150000000     0.565950000000    -0.175382   
N12      N      0.883890000000     0.968540000000     0.512580000000    -0.17507    
N13      N      0.022530000000     0.835110000000     0.500370000000    -0.17492    
N14      N      0.981810000000     0.605230000000     0.471640000000    -0.175132   
N15      N      0.991810000000     0.341230000000     0.529310000000    -0.174881   
N16      N      0.016400000000     0.104940000000     0.509950000000    -0.175615   
N17      N      0.381980000000     0.025730000000     0.030900000000    -0.175142   
N18      N      0.152380000000     0.006060000000     0.981900000000    -0.17513    
N19      N      0.654110000000     0.001630000000     0.044510000000    -0.17539    
N20      N      0.881120000000     0.039200000000     0.987860000000    -0.175044   
N21      N      0.001570000000     0.889600000000     0.992290000000    -0.175335   
N22      N      0.987590000000     0.653740000000     0.987870000000    -0.174677   
N23      N      0.032670000000     0.157440000000     0.977460000000    -0.174853   
N24      N      0.988350000000     0.385000000000     0.017410000000    -0.17496    
O1       O      0.084720000000     0.018670000000     0.945520000000    -0.398987   
O2       O      0.947050000000     0.024730000000     0.949030000000    -0.399355   
O3       O      0.018780000000     0.089520000000     0.943720000000    -0.399149   
O4       O      0.012730000000     0.953810000000     0.950860000000    -0.39875    
O5       O      0.004960000000     0.958670000000     0.026250000000    -0.398925   
O6       O      0.031150000000     0.092060000000     0.018550000000    -0.398843   
O7       O      0.950360000000     0.038360000000     0.023580000000    -0.399689   
O8       O      0.085450000000     0.012000000000     0.021130000000    -0.399722   
O9       O      0.087450000000     0.974830000000     0.463860000000    -0.39913    
O10      O      0.949740000000     0.969960000000     0.470860000000    -0.398801   
O11      O      0.015370000000     0.039290000000     0.469880000000    -0.401415   
O12      O      0.022040000000     0.903610000000     0.464680000000    -0.398464   
O13      O      0.020900000000     0.900750000000     0.540550000000    -0.401237   
O14      O      0.023650000000     0.036670000000     0.545360000000    -0.398582   
O15      O      0.953790000000     0.968370000000     0.546700000000    -0.400497   
O16      O      0.091260000000     0.967110000000     0.539250000000    -0.400097   
O17      O      0.027370000000     0.511410000000     0.935580000000    -0.398301   
O18      O      0.024110000000     0.528140000000     0.072780000000    -0.398805   
O19      O      0.025900000000     0.452230000000     0.013680000000    -0.399466   
O20      O      0.025590000000     0.586970000000     0.994860000000    -0.399657   
O21      O      0.949900000000     0.587110000000     0.997830000000    -0.399168   
O22      O      0.950450000000     0.451310000000     0.006760000000    -0.399486   
O23      O      0.948520000000     0.524240000000     0.071400000000    -0.398568   
O24      O      0.951760000000     0.514360000000     0.933570000000    -0.398864   
O25      O      0.023780000000     0.458820000000     0.431540000000    -0.399032   
O26      O      0.026640000000     0.489450000000     0.566190000000    -0.398151   
O27      O      0.027660000000     0.408190000000     0.515200000000    -0.398623   
O28      O      0.022500000000     0.540430000000     0.482170000000    -0.39821    
O29      O      0.947120000000     0.538950000000     0.489740000000    -0.401262   
O30      O      0.952030000000     0.405200000000     0.512640000000    -0.401184   
O31      O      0.951210000000     0.483770000000     0.569030000000    -0.39903    
O32      O      0.948090000000     0.460210000000     0.432880000000    -0.398641   
O33      O      0.513210000000     0.973010000000     0.103510000000    -0.400966   
O34      O      0.515900000000     0.980190000000     0.965850000000    -0.401263   
O35      O      0.583440000000     0.970660000000     0.035090000000    -0.399872   
O36      O      0.446190000000     0.982590000000     0.034570000000    -0.40052    
O37      O      0.453070000000     0.057040000000     0.031940000000    -0.399728   
O38      O      0.589620000000     0.044530000000     0.045120000000    -0.401025   
O39      O      0.527680000000     0.053880000000     0.969930000000    -0.401205   
O40      O      0.515660000000     0.047610000000     0.107080000000    -0.401584   
O41      O      0.513060000000     0.982120000000     0.605260000000    -0.402432   
O42      O      0.548570000000     0.972360000000     0.472300000000    -0.399467   
O43      O      0.596970000000     0.983910000000     0.556800000000    -0.40055    
O44      O      0.464240000000     0.970470000000     0.522680000000    -0.400449   
O45      O      0.458190000000     0.044690000000     0.515180000000    -0.399192   
O46      O      0.591950000000     0.057830000000     0.546260000000    -0.399712   
O47      O      0.541360000000     0.046400000000     0.464980000000    -0.403505   
O48      O      0.508310000000     0.056370000000     0.598290000000    -0.400236   


