data_structure

_audit_creation_method RASPA-1.0
_audit_creation_date 2023-6-4
_audit_author_name 'Poobodin Mano'

_cell_length_a    25.5751
_cell_length_b    27.0823
_cell_length_c    37.7817
_cell_angle_alpha 89.9988
_cell_angle_beta  89.9988
_cell_angle_gamma 93.6737
_cell_volume      26115.1

_symmetry_cell_setting          triclinic
_symmetry_space_group_name_Hall 'P 1'
_symmetry_space_group_name_H-M  'P 1'
_symmetry_Int_Tables_number     1

_symmetry_equiv_pos_as_xyz 'x,y,z'

loop_
_atom_site_label
_atom_site_type_symbol
_atom_site_fract_x
_atom_site_fract_y
_atom_site_fract_z
_atom_site_charge
C1       C      0.064890000000     0.910950000000     0.006590000000     0.39806    
C2       C      0.956640000000     0.073940000000     0.006860000000     0.397114   
C3       C      0.098810000000     0.044280000000     0.022430000000     0.405985   
C4       C      0.922570000000     0.939480000000     0.990290000000     0.403642   
C5       C      0.073960000000     0.901590000000     0.498340000000     0.394351   
C6       C      0.964000000000     0.063360000000     0.497210000000     0.399594   
C7       C      0.106890000000     0.035860000000     0.487870000000     0.405153   
C8       C      0.929810000000     0.926480000000     0.507470000000     0.407911   
C9       C      0.492610000000     0.491200000000     0.946180000000     0.476169   
C10      C      0.529210000000     0.495060000000     0.078730000000     0.476967   
C11      C      0.582890000000     0.434050000000     0.005120000000     0.534476   
C12      C      0.436140000000     0.551800000000     0.020440000000     0.466077   
C13      C      0.534480000000     0.489230000000     0.446520000000     0.468583   
C14      C      0.507110000000     0.472630000000     0.579080000000     0.468633   
C15      C      0.595580000000     0.427540000000     0.514960000000     0.463082   
C16      C      0.442270000000     0.538500000000     0.510190000000     0.543618   
C17      C      0.450120000000     0.438270000000     0.858880000000    -0.0331877  
C18      C      0.520080000000     0.497670000000     0.675590000000    -0.0315686  
C19      C      0.463680000000     0.427220000000     0.628710000000    -0.00327168 
C20      C      0.542360000000     0.488330000000     0.638890000000    -0.00278699 
C21      C      0.505930000000     0.427870000000     0.749790000000    -0.0546345  
C22      C      0.437300000000     0.496130000000     0.774950000000    -0.0540201  
C23      C      0.478940000000     0.456100000000     0.725670000000     0.0610976  
C24      C      0.445620000000     0.439320000000     0.666210000000    -0.0315038  
C25      C      0.465500000000     0.468930000000     0.799130000000     0.0600613  
C26      C      0.512570000000     0.507180000000     0.847810000000    -0.0598958  
C27      C      0.499570000000     0.434220000000     0.786180000000    -0.0560791  
C28      C      0.507770000000     0.527410000000     0.885510000000     0.0988372  
C29      C      0.440680000000     0.455210000000     0.896830000000    -0.00273635 
C30      C      0.443930000000     0.489980000000     0.738510000000    -0.0567844  
C31      C      0.587260000000     0.533180000000     0.167400000000    -0.0332801  
C32      C      0.521730000000     0.463850000000     0.350120000000    -0.0312818  
C33      C      0.579370000000     0.533520000000     0.396920000000    -0.00331125 
C34      C      0.532440000000     0.448560000000     0.388210000000    -0.00303334 
C35      C      0.599660000000     0.487850000000     0.278160000000    -0.0545593  
C36      C      0.514970000000     0.532270000000     0.247460000000    -0.0539616  
C37      C      0.561280000000     0.506560000000     0.299920000000     0.0611344  
C38      C      0.566650000000     0.544590000000     0.358230000000    -0.0312732  
C39      C      0.552580000000     0.512290000000     0.225660000000     0.0601632  
C40      C      0.531600000000     0.459370000000     0.176010000000    -0.0598321  
C41      C      0.595470000000     0.490510000000     0.241350000000    -0.0560797  
C42      C      0.511470000000     0.458370000000     0.137790000000     0.0989648  
C43      C      0.570680000000     0.539060000000     0.128830000000    -0.00109134 
C44      C      0.519100000000     0.529490000000     0.284300000000    -0.0567925  
C45      C      0.330750000000     0.607530000000     0.477580000000    -0.0331476  
C46      C      0.160560000000     0.804080000000     0.531560000000    -0.0298395  
C47      C      0.119830000000     0.839520000000     0.464600000000    -0.00732064 
C48      C      0.138220000000     0.855140000000     0.530510000000    -0.00756225 
C49      C      0.267740000000     0.755830000000     0.487800000000    -0.0540587  
C50      C      0.228010000000     0.664680000000     0.514340000000    -0.0539512  
C51      C      0.215150000000     0.750290000000     0.498410000000     0.0603257  
C52      C      0.143060000000     0.789060000000     0.469660000000    -0.0300457  
C53      C      0.281080000000     0.670770000000     0.504920000000     0.0598843  
C54      C      0.360080000000     0.644110000000     0.533140000000    -0.0601043  
C55      C      0.300390000000     0.716440000000     0.490670000000    -0.0560035  
C56      C      0.388430000000     0.597840000000     0.543500000000     0.097801   
C57      C      0.357030000000     0.559400000000     0.485660000000    -0.00259317 
C58      C      0.195100000000     0.703810000000     0.510860000000    -0.0563994  
C59      C      0.831400000000     0.851430000000     0.557950000000    -0.0316741  
C60      C      0.674050000000     0.631980000000     0.508680000000    -0.022261   
C61      C      0.600330000000     0.597210000000     0.562040000000    -0.0173195  
C62      C      0.646860000000     0.580260000000     0.508040000000    -0.019221   
C63      C      0.758460000000     0.701510000000     0.556480000000    -0.0549696  
C64      C      0.713150000000     0.785200000000     0.529910000000    -0.0546337  
C65      C      0.705760000000     0.698290000000     0.546340000000     0.0619529  
C66      C      0.627370000000     0.649060000000     0.564000000000    -0.0232801  
C67      C      0.766290000000     0.787970000000     0.538830000000     0.0613881  
C68      C      0.827860000000     0.823400000000     0.496900000000    -0.0592684  
C69      C      0.788810000000     0.745780000000     0.552460000000    -0.0565161  
C70      C      0.854380000000     0.872090000000     0.483390000000     0.0958778  
C71      C      0.856920000000     0.901490000000     0.547110000000    -0.00620125 
C72      C      0.683120000000     0.740710000000     0.533210000000    -0.0568294  
C73      C      0.867070000000     0.150990000000     0.527960000000    -0.0322697  
C74      C      0.732240000000     0.381560000000     0.512040000000    -0.031399   
C75      C      0.623200000000     0.342460000000     0.515890000000    -0.00199909 
C76      C      0.688680000000     0.416070000000     0.502950000000    -0.00377427 
C77      C      0.750200000000     0.253230000000     0.482180000000    -0.0536964  
C78      C      0.839270000000     0.265810000000     0.524700000000    -0.0536799  
C79      C      0.756090000000     0.294970000000     0.504190000000     0.0599917  
C80      C      0.670350000000     0.313610000000     0.526250000000    -0.0317297  
C81      C      0.833890000000     0.224670000000     0.502050000000     0.0595299  
C82      C      0.884750000000     0.168650000000     0.466330000000    -0.0589186  
C83      C      0.787830000000     0.217930000000     0.481600000000    -0.0554829  
C84      C      0.934870000000     0.140020000000     0.466680000000     0.0934385  
C85      C      0.917190000000     0.123220000000     0.531770000000    -0.00645054 
C86      C      0.800530000000     0.300120000000     0.526350000000    -0.0556706  
C87      C      0.406700000000     0.304240000000     0.512360000000    -0.0245957  
C88      C      0.183580000000     0.142610000000     0.458840000000    -0.0307391  
C89      C      0.194590000000     0.063500000000     0.510140000000    -0.00543792 
C90      C      0.164660000000     0.089370000000     0.449790000000    -0.00549062 
C91      C      0.295590000000     0.203520000000     0.465070000000    -0.0543677  
C92      C      0.272790000000     0.265980000000     0.521150000000    -0.0551094  
C93      C      0.254300000000     0.189980000000     0.488080000000     0.0616231  
C94      C      0.213110000000     0.116980000000     0.517400000000    -0.0300971  
C95      C      0.316550000000     0.277420000000     0.499820000000     0.0623764  
C96      C      0.345720000000     0.362110000000     0.486980000000    -0.0518095  
C97      C      0.325820000000     0.247510000000     0.470280000000    -0.0569751  
C98      C      0.382090000000     0.404880000000     0.500790000000     0.0811284  
C99      C      0.442910000000     0.348270000000     0.523810000000    -0.0186926  
C100     C      0.240970000000     0.223150000000     0.514900000000    -0.0560171  
C101     C      0.129000000000     0.801600000000     0.043100000000    -0.0317074  
C102     C      0.361830000000     0.664540000000     0.008410000000    -0.0318368  
C103     C      0.346470000000     0.566790000000     0.040680000000    -0.00384181 
C104     C      0.409630000000     0.637830000000     0.020720000000    -0.00288961 
C105     C      0.271910000000     0.724440000000     0.048790000000    -0.0540238  
C106     C      0.198040000000     0.709770000000     0.994750000000    -0.0536348  
C107     C      0.274520000000     0.683270000000     0.026480000000     0.0599768  
C108     C      0.301600000000     0.597710000000     0.028310000000    -0.0314795  
C109     C      0.194970000000     0.750560000000     0.017400000000     0.0593949  
C110     C      0.175940000000     0.828140000000     0.990360000000    -0.0579594  
C111     C      0.233250000000     0.758190000000     0.044070000000    -0.0558463  
C112     C      0.131390000000     0.859590000000     0.977760000000     0.0942667  
C113     C      0.081730000000     0.830860000000     0.033420000000    -0.00752456 
C114     C      0.237740000000     0.676850000000     0.998790000000    -0.0559424  
C115     C      0.627210000000     0.670070000000     0.012860000000    -0.0254058  
C116     C      0.852080000000     0.831070000000     0.958490000000    -0.0305261  
C117     C      0.831730000000     0.912220000000     0.006240000000    -0.005735   
C118     C      0.871320000000     0.884340000000     0.949260000000    -0.00615056 
C119     C      0.737560000000     0.768500000000     0.962260000000    -0.054455   
C120     C      0.761110000000     0.708100000000     0.019380000000    -0.0549432  
C121     C      0.778920000000     0.783120000000     0.984950000000     0.061588   
C122     C      0.813440000000     0.858760000000     0.013930000000    -0.0300707  
C123     C      0.717100000000     0.695680000000     0.998450000000     0.0619112  
C124     C      0.686270000000     0.610880000000     0.986870000000    -0.052101   
C125     C      0.707470000000     0.724570000000     0.968410000000    -0.0566373  
C126     C      0.649230000000     0.568710000000     0.001100000000     0.0819527  
C127     C      0.590440000000     0.626580000000     0.024790000000    -0.0176748  
C128     C      0.792660000000     0.750930000000     0.012280000000    -0.0563685  
C129     C      0.891550000000     0.188520000000     0.976140000000    -0.031647   
C130     C      0.654430000000     0.319540000000     0.020500000000    -0.0316541  
C131     C      0.671520000000     0.414330000000     0.984210000000    -0.002721   
C132     C      0.623010000000     0.363040000000     0.031990000000    -0.00217894 
C133     C      0.793980000000     0.308380000000     0.015080000000    -0.0539979  
C134     C      0.763860000000     0.216080000000     0.985930000000    -0.053433   
C135     C      0.742600000000     0.299550000000     0.002570000000     0.0598215  
C136     C      0.700070000000     0.367750000000     0.974980000000    -0.0313871  
C137     C      0.814380000000     0.224090000000     0.000140000000     0.0591753  
C138     C      0.869230000000     0.175420000000     0.037200000000    -0.0583029  
C139     C      0.829820000000     0.271450000000     0.013470000000    -0.0557928  
C140     C      0.897300000000     0.126880000000     0.039560000000     0.0943996  
C141     C      0.917640000000     0.139320000000     0.972780000000    -0.00581316 
C142     C      0.728480000000     0.253560000000     0.986560000000    -0.0560207  
C143     C      0.175570000000     0.142830000000     0.065610000000    -0.032475   
C144     C      0.376680000000     0.325300000000     0.001500000000    -0.0239355  
C145     C      0.385130000000     0.406770000000     0.050390000000    -0.0205463  
C146     C      0.406860000000     0.374330000000     0.992860000000    -0.0170184  
C147     C      0.252660000000     0.282550000000     0.025920000000    -0.0550252  
C148     C      0.300300000000     0.201480000000     0.054710000000    -0.0546269  
C149     C      0.305510000000     0.287360000000     0.035660000000     0.0617553  
C150     C      0.355610000000     0.357920000000     0.060200000000    -0.0222188  
C151     C      0.248140000000     0.196060000000     0.043520000000     0.0613151  
C152     C      0.211560000000     0.130500000000     0.006510000000    -0.0606808  
C153     C      0.223940000000     0.237310000000     0.029890000000    -0.0565498  
C154     C      0.191370000000     0.076190000000     0.006700000000     0.0952802  
C155     C      0.153990000000     0.088760000000     0.067030000000    -0.00608892 
C156     C      0.328860000000     0.246770000000     0.051000000000    -0.0568218  
Cu1      Cu     0.019970000000     0.997930000000     0.974720000000     0.831849   
Cu2      Cu     0.000670000000     0.986330000000     0.038200000000     0.837172   
Cu3      Cu     0.012730000000     0.978140000000     0.465430000000     0.834899   
Cu4      Cu     0.023600000000     0.985540000000     0.530110000000     0.842459   
Cu5      Cu     0.545310000000     0.532640000000     0.007350000000     1.21845    
Cu6      Cu     0.473680000000     0.452550000000     0.018060000000     1.17393    
Cu7      Cu     0.553020000000     0.524110000000     0.518550000000     1.16483    
Cu8      Cu     0.484610000000     0.443190000000     0.507080000000     1.21169    
H1       H      0.423150000000     0.512760000000     0.720450000000     0.0401649  
H2       H      0.413770000000     0.417920000000     0.849100000000     0.034076   
H3       H      0.522920000000     0.538950000000     0.829830000000     0.0456158  
H4       H      0.482300000000     0.391240000000     0.629290000000     0.0349805  
H5       H      0.403790000000     0.474820000000     0.897460000000     0.0342429  
H6       H      0.553330000000     0.508520000000     0.693610000000     0.0340321  
H7       H      0.423230000000     0.406170000000     0.677140000000     0.0341161  
H8       H      0.559690000000     0.524070000000     0.628340000000     0.0359535  
H9       H      0.411580000000     0.523490000000     0.784440000000     0.0437802  
H10      H      0.434410000000     0.421650000000     0.913640000000     0.0364653  
H11      H      0.533420000000     0.402100000000     0.740290000000     0.0438246  
H12      H      0.482100000000     0.412240000000     0.859030000000     0.0361428  
H13      H      0.428580000000     0.422510000000     0.611360000000     0.0371182  
H14      H      0.481580000000     0.558680000000     0.884410000000     0.0162983  
H15      H      0.494040000000     0.529070000000     0.674250000000     0.0361375  
H16      H      0.418880000000     0.470140000000     0.664920000000     0.0359752  
H17      H      0.522720000000     0.413370000000     0.804090000000     0.0395203  
H18      H      0.545230000000     0.481830000000     0.846760000000     0.0458962  
H19      H      0.574610000000     0.462910000000     0.641500000000     0.0363248  
H20      H      0.559220000000     0.577450000000     0.912850000000     0.0955005  
H21      H      0.582720000000     0.518760000000     0.906380000000     0.0895579  
H22      H      0.488660000000     0.543840000000     0.300510000000     0.0400953  
H23      H      0.599150000000     0.570480000000     0.178180000000     0.0343994  
H24      H      0.500700000000     0.440810000000     0.193090000000     0.0448544  
H25      H      0.620800000000     0.523550000000     0.398640000000     0.0351265  
H26      H      0.546670000000     0.571780000000     0.126810000000     0.0347476  
H27      H      0.519150000000     0.429900000000     0.333420000000     0.0341915  
H28      H      0.597900000000     0.571030000000     0.347620000000     0.0340104  
H29      H      0.497660000000     0.425890000000     0.398070000000     0.0392242  
H30      H      0.481470000000     0.548630000000     0.235810000000     0.0440658  
H31      H      0.606410000000     0.547580000000     0.112570000000     0.0359436  
H32      H      0.632090000000     0.469790000000     0.289810000000     0.044093   
H33      H      0.622070000000     0.510510000000     0.168420000000     0.0350546  
H34      H      0.575900000000     0.567860000000     0.412660000000     0.0384742  
H35      H      0.469440000000     0.466960000000     0.138530000000     0.0174404  
H36      H      0.483260000000     0.480890000000     0.348860000000     0.0365071  
H37      H      0.528760000000     0.562620000000     0.356960000000     0.036542   
H38      H      0.624740000000     0.474140000000     0.225230000000     0.0397164  
H39      H      0.567030000000     0.437560000000     0.178090000000     0.0463468  
H40      H      0.566220000000     0.424670000000     0.388330000000     0.0368902  
H41      H      0.482520000000     0.396490000000     0.108860000000     0.094027   
H42      H      0.550330000000     0.403550000000     0.111050000000     0.0903258  
H43      H      0.154430000000     0.698110000000     0.518620000000     0.0399794  
H44      H      0.296010000000     0.598410000000     0.460480000000     0.0344234  
H45      H      0.347080000000     0.662330000000     0.557760000000     0.0459563  
H46      H      0.148950000000     0.864530000000     0.450390000000     0.0392315  
H47      H      0.326820000000     0.532100000000     0.496440000000     0.0358891  
H48      H      0.190920000000     0.804320000000     0.552690000000     0.0341826  
H49      H      0.160210000000     0.777920000000     0.444010000000     0.0337868  
H50      H      0.114810000000     0.859720000000     0.554970000000     0.0397872  
H51      H      0.212290000000     0.629610000000     0.524870000000     0.0436708  
H52      H      0.371940000000     0.544820000000     0.460320000000     0.0300864  
H53      H      0.283640000000     0.791100000000     0.477730000000     0.0440887  
H54      H      0.358440000000     0.633210000000     0.462620000000     0.0373711  
H55      H      0.084670000000     0.834570000000     0.447320000000     0.0373964  
H56      H      0.361110000000     0.575150000000     0.560840000000     0.0138998  
H57      H      0.128680000000     0.775930000000     0.538770000000     0.0356317  
H58      H      0.111320000000     0.760710000000     0.476830000000     0.0358215  
H59      H      0.340870000000     0.721990000000     0.482450000000     0.0400473  
H60      H      0.388030000000     0.670590000000     0.519100000000     0.0453378  
H61      H      0.171320000000     0.883840000000     0.531220000000     0.0380735  
H62      H      0.449100000000     0.583140000000     0.578180000000     0.0922064  
H63      H      0.463520000000     0.632660000000     0.549340000000     0.0963787  
H64      H      0.643020000000     0.739070000000     0.523980000000     0.040438   
H65      H      0.807730000000     0.856380000000     0.582270000000     0.0340848  
H66      H      0.801420000000     0.807750000000     0.475690000000     0.0457111  
H67      H      0.622940000000     0.570620000000     0.577300000000     0.0364691  
H68      H      0.825770000000     0.928130000000     0.544640000000     0.0350758  
H69      H      0.713800000000     0.630080000000     0.496970000000     0.0318283  
H70      H      0.633620000000     0.659170000000     0.592290000000     0.0319282  
H71      H      0.641800000000     0.568040000000     0.480160000000     0.033081   
H72      H      0.695710000000     0.817020000000     0.518610000000     0.0437897  
H73      H      0.883390000000     0.914980000000     0.568840000000     0.0407945  
H74      H      0.776630000000     0.668930000000     0.565870000000     0.043619   
H75      H      0.862810000000     0.826200000000     0.564200000000     0.0376102  
H76      H      0.560630000000     0.598040000000     0.573840000000     0.0306678  
H77      H      0.823000000000     0.895760000000     0.474260000000     0.0163336  
H78      H      0.651350000000     0.656990000000     0.492020000000     0.036734   
H79      H      0.600770000000     0.675330000000     0.552020000000     0.0350741  
H80      H      0.830150000000     0.746320000000     0.558550000000     0.0401684  
H81      H      0.858100000000     0.796410000000     0.502150000000     0.0466822  
H82      H      0.671160000000     0.553700000000     0.521980000000     0.0373398  
H83      H      0.890810000000     0.889480000000     0.434900000000     0.0935461  
H84      H      0.922830000000     0.846840000000     0.460680000000     0.0937743  
H85      H      0.806050000000     0.330750000000     0.544590000000     0.0398491  
H86      H      0.858100000000     0.167180000000     0.554190000000     0.0337367  
H87      H      0.889320000000     0.198580000000     0.446160000000     0.045995   
H88      H      0.608950000000     0.329530000000     0.489450000000     0.0383849  
H89      H      0.948370000000     0.148730000000     0.543460000000     0.0381322  
H90      H      0.767670000000     0.393180000000     0.496280000000     0.0341918  
H91      H      0.659480000000     0.273530000000     0.522260000000     0.0331802  
H92      H      0.698630000000     0.452980000000     0.514970000000     0.0372561  
H93      H      0.873660000000     0.271120000000     0.541330000000     0.043199   
H94      H      0.909130000000     0.092260000000     0.550770000000     0.0385069  
H95      H      0.715800000000     0.247810000000     0.465570000000     0.0431917  
H96      H      0.833630000000     0.124660000000     0.520490000000     0.0378995  
H97      H      0.591040000000     0.333560000000     0.535150000000     0.0354725  
H98      H      0.968490000000     0.167890000000     0.469800000000     0.0163694  
H99      H      0.742120000000     0.386110000000     0.540610000000     0.0354268  
H100     H      0.679660000000     0.319350000000     0.554820000000     0.0375578  
H101     H      0.780800000000     0.185960000000     0.464760000000     0.0399738  
H102     H      0.851360000000     0.142660000000     0.458310000000     0.0449221  
H103     H      0.688140000000     0.421540000000     0.473780000000     0.0359662  
H104     H      0.978520000000     0.108960000000     0.426590000000     0.0938354  
H105     H      0.913400000000     0.085010000000     0.429480000000     0.0953069  
H106     H      0.207670000000     0.215230000000     0.532050000000     0.0405807  
H107     H      0.409260000000     0.274140000000     0.532200000000     0.0325092  
H108     H      0.304540000000     0.373020000000     0.488250000000     0.0436117  
H109     H      0.228410000000     0.043810000000     0.500030000000     0.0353959  
H110     H      0.434130000000     0.358800000000     0.551530000000     0.0351696  
H111     H      0.196140000000     0.161740000000     0.433880000000     0.033208   
H112     H      0.247470000000     0.117520000000     0.535510000000     0.0342596  
H113     H      0.129760000000     0.090030000000     0.432270000000     0.0378369  
H114     H      0.264200000000     0.289680000000     0.543210000000     0.0438128  
H115     H      0.483920000000     0.337360000000     0.522690000000     0.0329579  
H116     H      0.305050000000     0.179270000000     0.443520000000     0.0431053  
H117     H      0.421290000000     0.290980000000     0.486550000000     0.0358572  
H118     H      0.181450000000     0.045280000000     0.535260000000     0.0394471  
H119     H      0.371090000000     0.413050000000     0.528640000000     0.0138666  
H120     H      0.150890000000     0.162430000000     0.470560000000     0.0389174  
H121     H      0.180700000000     0.135190000000     0.530770000000     0.0391767  
H122     H      0.357660000000     0.256870000000     0.452160000000     0.0403893  
H123     H      0.355500000000     0.353800000000     0.458960000000     0.0436278  
H124     H      0.196240000000     0.071710000000     0.435140000000     0.0367228  
H125     H      0.408310000000     0.474790000000     0.489080000000     0.321172   
H126     H      0.382110000000     0.443140000000     0.453180000000     0.094241   
H127     H      0.239580000000     0.646660000000     0.980200000000     0.0401991  
H128     H      0.115050000000     0.768960000000     0.059210000000     0.0342889  
H129     H      0.197030000000     0.815490000000     0.966550000000     0.0451977  
H130     H      0.349760000000     0.569840000000     0.069950000000     0.0352316  
H131     H      0.050920000000     0.804780000000     0.021950000000     0.0354853  
H132     H      0.371920000000     0.705100000000     0.009800000000     0.0338347  
H133     H      0.266570000000     0.588120000000     0.045000000000     0.0342285  
H134     H      0.441910000000     0.645730000000     0.001400000000     0.0380808  
H135     H      0.170020000000     0.704030000000     0.973420000000     0.0436219  
H136     H      0.065430000000     0.845770000000     0.058210000000     0.0402207  
H137     H      0.300690000000     0.730850000000     0.069580000000     0.0435211  
H138     H      0.156070000000     0.825680000000     0.059670000000     0.0365386  
H139     H      0.336100000000     0.527270000000     0.034380000000     0.0373394  
H140     H      0.108810000000     0.838020000000     0.957110000000     0.0178046  
H141     H      0.352670000000     0.654860000000     0.980330000000     0.0382861  
H142     H      0.291830000000     0.587480000000     0.000450000000     0.0362699  
H143     H      0.233690000000     0.790210000000     0.061170000000     0.0399533  
H144     H      0.204570000000     0.851250000000     0.006570000000     0.0464967  
H145     H      0.422890000000     0.653410000000     0.046680000000     0.0354497  
H146     H      0.133820000000     0.917060000000     0.940540000000     0.0923269  
H147     H      0.165090000000     0.932110000000     0.980530000000     0.088918   
H148     H      0.826000000000     0.759840000000     0.029210000000     0.0406779  
H149     H      0.625840000000     0.700230000000     0.032770000000     0.0327     
H150     H      0.727170000000     0.599170000000     0.987800000000     0.0435116  
H151     H      0.799150000000     0.930390000000     0.993060000000     0.0355583  
H152     H      0.599760000000     0.615780000000     0.052380000000     0.0345012  
H153     H      0.843470000000     0.810630000000     0.933390000000     0.0337136  
H154     H      0.776510000000     0.858330000000     0.029550000000     0.0343595  
H155     H      0.908780000000     0.883770000000     0.934360000000     0.038887   
H156     H      0.770000000000     0.685300000000     0.041870000000     0.0437367  
H157     H      0.549680000000     0.638240000000     0.024260000000     0.0320542  
H158     H      0.727660000000     0.792030000000     0.940400000000     0.0433995  
H159     H      0.612080000000     0.683670000000     0.987300000000     0.0356145  
H160     H      0.840440000000     0.932120000000     0.031510000000     0.0392707  
H161     H      0.660630000000     0.560280000000     0.028820000000     0.0142063  
H162     H      0.883410000000     0.812490000000     0.972850000000     0.0391802  
H163     H      0.844050000000     0.842090000000     0.030150000000     0.0394839  
H164     H      0.675330000000     0.714540000000     0.950670000000     0.0401808  
H165     H      0.676150000000     0.619070000000     0.958880000000     0.0427268  
H166     H      0.841720000000     0.900620000000     0.931980000000     0.0368963  
H167     H      0.620680000000     0.499150000000     0.988540000000     0.319178   
H168     H      0.649340000000     0.530680000000     0.953350000000     0.0907919  
H169     H      0.689810000000     0.245990000000     0.975480000000     0.0401056  
H170     H      0.876590000000     0.198520000000     0.949580000000     0.0340538  
H171     H      0.836740000000     0.173740000000     0.056890000000     0.044936   
H172     H      0.698590000000     0.439690000000     0.999790000000     0.0361999  
H173     H      0.891950000000     0.113600000000     0.956470000000     0.0394652  
H174     H      0.659220000000     0.295100000000     0.043800000000     0.0343681  
H175     H      0.739210000000     0.379650000000     0.963930000000     0.0339047  
H176     H      0.582510000000     0.348580000000     0.038600000000     0.0381796  
H177     H      0.751580000000     0.180320000000     0.974850000000     0.0441307  
H178     H      0.954970000000     0.145880000000     0.957890000000     0.0371368  
H179     H      0.806030000000     0.343890000000     0.026640000000     0.0436433  
H180     H      0.921140000000     0.218310000000     0.984380000000     0.035399   
H181     H      0.662070000000     0.432990000000     0.959020000000     0.0282137  
H182     H      0.866530000000     0.096360000000     0.043610000000     0.018545   
H183     H      0.631660000000     0.297940000000     0.999960000000     0.0366225  
H184     H      0.677870000000     0.346000000000     0.954220000000     0.0366769  
H185     H      0.869010000000     0.279570000000     0.023540000000     0.0396161  
H186     H      0.897150000000     0.206870000000     0.044900000000     0.0456332  
H187     H      0.640520000000     0.378780000000     0.056810000000     0.0319472  
H188     H      0.929580000000     0.096850000000     0.085110000000     0.0925607  
H189     H      0.969520000000     0.142770000000     0.064760000000     0.0915517  
H190     H      0.369600000000     0.249560000000     0.058930000000     0.0404395  
H191     H      0.185750000000     0.155210000000     0.092980000000     0.0340071  
H192     H      0.248120000000     0.134190000000     0.990430000000     0.0462215  
H193     H      0.357690000000     0.432290000000     0.038390000000     0.0378272  
H194     H      0.183160000000     0.066540000000     0.080550000000     0.0356917  
H195     H      0.358770000000     0.309940000000     0.976670000000     0.0323838  
H196     H      0.322520000000     0.365830000000     0.078010000000     0.0316526  
H197     H      0.440050000000     0.366790000000     0.975150000000     0.03176    
H198     H      0.319340000000     0.170000000000     0.065150000000     0.043845   
H199     H      0.117600000000     0.086800000000     0.083220000000     0.0385463  
H200     H      0.234210000000     0.313530000000     0.014220000000     0.0434424  
H201     H      0.144570000000     0.166080000000     0.055320000000     0.0371634  
H202     H      0.401870000000     0.424280000000     0.074750000000     0.0335556  
H203     H      0.223290000000     0.054820000000     0.017880000000     0.0161366  
H204     H      0.404920000000     0.298970000000     0.011520000000     0.0362622  
H205     H      0.382630000000     0.334490000000     0.074780000000     0.0348775  
H206     H      0.183640000000     0.233990000000     0.021010000000     0.0400281  
H207     H      0.181810000000     0.153100000000     0.993850000000     0.0463228  
H208     H      0.381040000000     0.399630000000     0.978980000000     0.0338915  
H209     H      0.173370000000     0.020950000000     0.969250000000     0.0908022  
H210     H      0.155120000000     0.079800000000     0.956870000000     0.0946854  
N1       N      0.483880000000     0.489230000000     0.910250000000    -0.193177   
N2       N      0.463270000000     0.481440000000     0.836290000000    -0.110564   
N3       N      0.491440000000     0.452500000000     0.688540000000    -0.113356   
N4       N      0.502190000000     0.465480000000     0.614830000000    -0.182215   
N5       N      0.560350000000     0.546570000000     0.896310000000    -0.198594   
N6       N      0.539790000000     0.495490000000     0.114340000000    -0.194085   
N7       N      0.543380000000     0.510380000000     0.187910000000    -0.109709   
N8       N      0.564340000000     0.498490000000     0.337610000000    -0.113403   
N9       N      0.545300000000     0.491930000000     0.411050000000    -0.180592   
N10      N      0.514990000000     0.407780000000     0.124330000000    -0.198696   
N11      N      0.399690000000     0.567170000000     0.511870000000    -0.20913    
N12      N      0.314400000000     0.630230000000     0.510760000000    -0.11056    
N13      N      0.183720000000     0.792900000000     0.497120000000    -0.113205   
N14      N      0.106530000000     0.863170000000     0.498460000000    -0.166386   
N15      N      0.434910000000     0.613070000000     0.564480000000    -0.200208   
N16      N      0.883900000000     0.898430000000     0.512560000000    -0.181389   
N17      N      0.797580000000     0.831950000000     0.529090000000    -0.111377   
N18      N      0.678250000000     0.650220000000     0.545440000000    -0.116542   
N19      N      0.595560000000     0.581950000000     0.524930000000    -0.230457   
N20      N      0.887060000000     0.860260000000     0.453000000000    -0.19827    
N21      N      0.935810000000     0.105120000000     0.497300000000    -0.178734   
N22      N      0.875230000000     0.190210000000     0.501360000000    -0.11055    
N23      N      0.715140000000     0.329830000000     0.503960000000    -0.112286   
N24      N      0.635910000000     0.396480000000     0.514220000000    -0.178932   
N25      N      0.939650000000     0.116040000000     0.432160000000    -0.198483   
N26      N      0.436240000000     0.389620000000     0.499560000000    -0.25049    
N27      N      0.351940000000     0.318570000000     0.509600000000    -0.113741   
N28      N      0.227690000000     0.141860000000     0.483760000000    -0.113875   
N29      N      0.153490000000     0.061940000000     0.482830000000    -0.170137   
N30      N      0.377410000000     0.450300000000     0.480220000000    -0.26974    
N31      N      0.094730000000     0.870350000000     0.007120000000    -0.178577   
N32      N      0.155040000000     0.785250000000     0.010800000000    -0.110789   
N33      N      0.316980000000     0.650880000000     0.031460000000    -0.112946   
N34      N      0.397370000000     0.584050000000     0.024930000000    -0.180034   
N35      N      0.155890000000     0.904650000000     0.961660000000    -0.198014   
N36      N      0.595500000000     0.585110000000     0.000400000000    -0.251202   
N37      N      0.681610000000     0.654960000000     0.009260000000    -0.113589   
N38      N      0.804500000000     0.831710000000     0.980340000000    -0.113894   
N39      N      0.876900000000     0.913440000000     0.982080000000    -0.169331   
N40      N      0.652510000000     0.523150000000     0.980420000000    -0.26916    
N41      N      0.927450000000     0.115040000000     0.007100000000    -0.178169   
N42      N      0.848300000000     0.183110000000     0.001570000000    -0.109904   
N43      N      0.705990000000     0.337880000000     0.006960000000    -0.11285    
N44      N      0.623450000000     0.402980000000     0.005170000000    -0.196247   
N45      N      0.931100000000     0.130130000000     0.071010000000    -0.197523   
N46      N      0.145290000000     0.069630000000     0.030750000000    -0.181798   
N47      N      0.222530000000     0.147150000000     0.043000000000    -0.111343   
N48      N      0.335340000000     0.333000000000     0.027860000000    -0.116639   
N49      N      0.427370000000     0.397120000000     0.025580000000    -0.23003    
N50      N      0.182090000000     0.059150000000     0.970280000000    -0.198529   
O1       O      0.060990000000     0.936130000000     0.978050000000    -0.400122   
O2       O      0.977370000000     0.059490000000     0.977900000000    -0.393413   
O3       O      0.085190000000     0.038220000000     0.990060000000    -0.407776   
O4       O      0.953440000000     0.955120000000     0.965410000000    -0.400054   
O5       O      0.933920000000     0.948270000000     0.022820000000    -0.401882   
O6       O      0.068960000000     0.026740000000     0.047340000000    -0.402637   
O7       O      0.962040000000     0.049320000000     0.035470000000    -0.400518   
O8       O      0.041040000000     0.923730000000     0.034780000000    -0.396623   
O9       O      0.055150000000     0.916780000000     0.469000000000    -0.395464   
O10      O      0.972390000000     0.040510000000     0.468230000000    -0.399971   
O11      O      0.079840000000     0.021000000000     0.460950000000    -0.404199   
O12      O      0.946300000000     0.936290000000     0.476100000000    -0.407332   
O13      O      0.955700000000     0.943540000000     0.534350000000    -0.404185   
O14      O      0.091010000000     0.025960000000     0.519430000000    -0.403178   
O15      O      0.981480000000     0.046870000000     0.526550000000    -0.397012   
O16      O      0.064610000000     0.923850000000     0.527450000000    -0.39771    
O17      O      0.521800000000     0.526000000000     0.959380000000    -0.486121   
O18      O      0.554570000000     0.524840000000     0.058020000000    -0.493615   
O19      O      0.589220000000     0.479380000000     0.995440000000    -0.683319   
O20      O      0.482750000000     0.568470000000     0.013850000000    -0.483253   
O21      O      0.425850000000     0.505350000000     0.023330000000    -0.476286   
O22      O      0.537960000000     0.417890000000     0.016100000000    -0.489449   
O23      O      0.493750000000     0.465010000000     0.066420000000    -0.484105   
O24      O      0.471300000000     0.458140000000     0.966460000000    -0.480709   
O25      O      0.551150000000     0.523920000000     0.467110000000    -0.474132   
O26      O      0.543480000000     0.502030000000     0.566990000000    -0.480154   
O27      O      0.604940000000     0.474350000000     0.515250000000    -0.467442   
O28      O      0.486440000000     0.554980000000     0.522020000000    -0.495332   
O29      O      0.438960000000     0.495290000000     0.496480000000    -0.688971   
O30      O      0.548460000000     0.409390000000     0.514010000000    -0.479618   
O31      O      0.476280000000     0.448910000000     0.557850000000    -0.491487   
O32      O      0.509040000000     0.451380000000     0.459080000000    -0.477696   


