data_structure

_audit_creation_method RASPA-1.0
_audit_creation_date 2023-6-4
_audit_author_name 'Poobodin Mano'

_cell_length_a    26.5058
_cell_length_b    25.8036
_cell_length_c    35.645
_cell_angle_alpha 89.9988
_cell_angle_beta  89.9988
_cell_angle_gamma 93.6686
_cell_volume      24329.3

_symmetry_cell_setting          triclinic
_symmetry_space_group_name_Hall 'P 1'
_symmetry_space_group_name_H-M  'P 1'
_symmetry_Int_Tables_number     1

_symmetry_equiv_pos_as_xyz 'x,y,z'

loop_
_atom_site_label
_atom_site_type_symbol
_atom_site_fract_x
_atom_site_fract_y
_atom_site_fract_z
_atom_site_charge
C1       C      0.111880000000     0.882200000000     0.037690000000     0.397684   
C2       C      0.949690000000     0.994970000000     0.033570000000     0.398385   
C3       C      0.087330000000     0.022660000000     0.015970000000     0.403264   
C4       C      0.972070000000     0.855120000000     0.054660000000     0.400457   
C5       C      0.060850000000     0.039380000000     0.551880000000     0.397337   
C6       C      0.887920000000     0.134560000000     0.545770000000     0.397596   
C7       C      0.024510000000     0.177220000000     0.563940000000     0.399916   
C8       C      0.925640000000     0.996150000000     0.534520000000     0.401752   
C9       C      0.530630000000     0.469720000000     0.978950000000     0.470709   
C10      C      0.524690000000     0.403160000000     0.113040000000     0.473496   
C11      C      0.595230000000     0.376040000000     0.032430000000     0.464139   
C12      C      0.456440000000     0.497930000000     0.061180000000     0.465955   
C13      C      0.457800000000     0.577360000000     0.460400000000     0.472987   
C14      C      0.496920000000     0.596420000000     0.599620000000     0.451105   
C15      C      0.530370000000     0.511410000000     0.530140000000     0.466637   
C16      C      0.416950000000     0.663020000000     0.535840000000     0.465483   
C17      C      0.521720000000     0.470780000000     0.873820000000    -0.0319602  
C18      C      0.508700000000     0.625500000000     0.702020000000    -0.0314334  
C19      C      0.521410000000     0.539570000000     0.650650000000    -0.00496905 
C20      C      0.523300000000     0.637330000000     0.661170000000    -0.00412487 
C21      C      0.569740000000     0.548750000000     0.770610000000    -0.0546856  
C22      C      0.482180000000     0.559040000000     0.812920000000    -0.0537788  
C23      C      0.526670000000     0.566300000000     0.753230000000     0.0613827  
C24      C      0.505180000000     0.532840000000     0.691500000000    -0.0297723  
C25      C      0.525470000000     0.541870000000     0.830390000000     0.0600077  
C26      C      0.564200000000     0.552000000000     0.891950000000    -0.0442202  
C27      C      0.569150000000     0.535970000000     0.808630000000    -0.056034   
C28      C      0.557410000000     0.540360000000     0.934210000000     0.0423819  
C29      C      0.506120000000     0.456330000000     0.913680000000    -0.00154405 
C30      C      0.482400000000     0.570570000000     0.774550000000    -0.0569047  
C31      C      0.456620000000     0.396390000000     0.194990000000    -0.0323348  
C32      C      0.495070000000     0.554770000000     0.364870000000    -0.031736   
C33      C      0.402360000000     0.543060000000     0.408720000000    -0.00362745 
C34      C      0.483450000000     0.595140000000     0.394520000000    -0.00230142 
C35      C      0.447820000000     0.515940000000     0.281380000000    -0.0543545  
C36      C      0.489840000000     0.420140000000     0.290790000000    -0.0544142  
C37      C      0.457250000000     0.497980000000     0.317660000000     0.061039   
C38      C      0.415800000000     0.504480000000     0.378250000000    -0.0312526  
C39      C      0.480520000000     0.438120000000     0.254540000000     0.0612037  
C40      C      0.544000000000     0.431670000000     0.206520000000    -0.0449259  
C41      C      0.459780000000     0.486640000000     0.249990000000    -0.0562659  
C42      C      0.563220000000     0.394140000000     0.177480000000     0.0443025  
C43      C      0.475490000000     0.360410000000     0.164310000000    -0.00449672 
C44      C      0.478860000000     0.449880000000     0.322120000000    -0.0563302  
C45      C      0.367710000000     0.796320000000     0.526160000000    -0.0314947  
C46      C      0.145910000000     0.937830000000     0.578190000000    -0.0300725  
C47      C      0.142280000000     0.020150000000     0.522430000000    -0.00760566 
C48      C      0.119890000000     0.987570000000     0.587700000000    -0.00755813 
C49      C      0.265840000000     0.908460000000     0.565300000000    -0.0543828  
C50      C      0.236230000000     0.821650000000     0.521820000000    -0.0536924  
C51      C      0.219070000000     0.906640000000     0.546870000000     0.0608114  
C52      C      0.168020000000     0.969460000000     0.515740000000    -0.0300408  
C53      C      0.283510000000     0.823950000000     0.539600000000     0.059823   
C54      C      0.313530000000     0.747950000000     0.569460000000    -0.0439955  
C55      C      0.297560000000     0.867380000000     0.562190000000    -0.0559689  
C56      C      0.338780000000     0.696790000000     0.562130000000     0.0418956  
C57      C      0.395970000000     0.748980000000     0.514840000000    -0.00358293 
C58      C      0.203950000000     0.862190000000     0.525710000000    -0.0565486  
C59      C      0.632300000000     0.714210000000     0.473710000000    -0.0265548  
C60      C      0.830420000000     0.891990000000     0.549910000000    -0.0300157  
C61      C      0.897080000000     0.927720000000     0.488970000000    -0.00683143 
C62      C      0.883890000000     0.914170000000     0.558310000000    -0.00648727 
C63      C      0.778930000000     0.784840000000     0.508330000000    -0.0546525  
C64      C      0.689760000000     0.835970000000     0.499480000000    -0.0548032  
C65      C      0.781160000000     0.839080000000     0.506350000000     0.0615216  
C66      C      0.843290000000     0.904270000000     0.482500000000    -0.0302851  
C67      C      0.687460000000     0.781770000000     0.502220000000     0.0617248  
C68      C      0.627450000000     0.733340000000     0.541440000000    -0.0225867  
C69      C      0.732540000000     0.756280000000     0.506540000000    -0.0568718  
C70      C      0.574220000000     0.707280000000     0.541700000000    -0.015572   
C71      C      0.579760000000     0.685780000000     0.475960000000    -0.0103042  
C72      C      0.736140000000     0.864600000000     0.501760000000    -0.056642   
C73      C      0.575340000000     0.376110000000     0.528710000000    -0.0313721  
C74      C      0.794860000000     0.228520000000     0.571420000000    -0.0305134  
C75      C      0.815350000000     0.161220000000     0.508310000000    -0.0075337  
C76      C      0.818960000000     0.176800000000     0.578350000000    -0.00688083 
C77      C      0.683990000000     0.265130000000     0.555330000000    -0.0540031  
C78      C      0.708390000000     0.350620000000     0.509320000000    -0.053703   
C79      C      0.729420000000     0.267040000000     0.535030000000     0.060214   
C80      C      0.790820000000     0.213000000000     0.504240000000    -0.0300691  
C81      C      0.662410000000     0.348170000000     0.528960000000     0.059676   
C82      C      0.644000000000     0.433600000000     0.550750000000    -0.0439757  
C83      C      0.651330000000     0.305550000000     0.553080000000    -0.0556005  
C84      C      0.617320000000     0.482670000000     0.539760000000     0.0422991  
C85      C      0.544160000000     0.420820000000     0.516090000000    -0.00453927 
C86      C      0.742050000000     0.311270000000     0.512830000000    -0.0557817  
C87      C      0.344190000000     0.435520000000     0.590600000000    -0.022618   
C88      C      0.098840000000     0.305700000000     0.551500000000    -0.0297531  
C89      C      0.071630000000     0.230360000000     0.610430000000    -0.00632881 
C90      C      0.068980000000     0.256000000000     0.539680000000    -0.00547558 
C91      C      0.218970000000     0.324310000000     0.566430000000    -0.0543485  
C92      C      0.210050000000     0.416240000000     0.606630000000    -0.0544481  
C93      C      0.174370000000     0.331820000000     0.586050000000     0.0620502  
C94      C      0.104410000000     0.280740000000     0.616210000000    -0.029531   
C95      C      0.254570000000     0.408910000000     0.586610000000     0.0610484  
C96      C      0.287390000000     0.478820000000     0.547800000000    -0.0382186  
C97      C      0.258320000000     0.362660000000     0.566030000000    -0.0563012  
C98      C      0.326660000000     0.524830000000     0.544920000000     0.0307121  
C99      C      0.382730000000     0.481770000000     0.586400000000    -0.0223389  
C100     C      0.169820000000     0.378430000000     0.605950000000    -0.0569233  
C101     C      0.350510000000     0.575410000000     0.035830000000    -0.0322755  
C102     C      0.209650000000     0.804180000000     0.079670000000    -0.0299674  
C103     C      0.170080000000     0.825530000000     0.005320000000    -0.00740506 
C104     C      0.188040000000     0.856700000000     0.071600000000    -0.00762779 
C105     C      0.309270000000     0.737630000000     0.040090000000    -0.0540099  
C106     C      0.264960000000     0.649800000000     0.076010000000    -0.0541634  
C107     C      0.258880000000     0.737620000000     0.052050000000     0.060629   
C108     C      0.192020000000     0.774050000000     0.016160000000    -0.0300944  
C109     C      0.315550000000     0.650070000000     0.064510000000     0.0605184  
C110     C      0.390930000000     0.614600000000     0.091190000000    -0.044359   
C111     C      0.337350000000     0.694200000000     0.045920000000    -0.0561751  
C112     C      0.413300000000     0.563040000000     0.101770000000     0.0415243  
C113     C      0.371470000000     0.522840000000     0.044770000000    -0.00342296 
C114     C      0.236640000000     0.692890000000     0.069640000000    -0.0563695  
C115     C      0.648460000000     0.604510000000     0.098290000000    -0.0262859  
C116     C      0.892660000000     0.729430000000     0.048280000000    -0.029842   
C117     C      0.916480000000     0.812970000000     0.101940000000    -0.00677644 
C118     C      0.921200000000     0.778390000000     0.033760000000    -0.00549336 
C119     C      0.774210000000     0.705590000000     0.060530000000    -0.0539907  
C120     C      0.781620000000     0.625600000000     0.112660000000    -0.0548185  
C121     C      0.817160000000     0.704880000000     0.083320000000     0.061551   
C122     C      0.884790000000     0.762740000000     0.110890000000    -0.029595   
C123     C      0.738460000000     0.626740000000     0.090050000000     0.0617379  
C124     C      0.702930000000     0.547500000000     0.062260000000    -0.0245608  
C125     C      0.735700000000     0.666470000000     0.063190000000    -0.0566034  
C126     C      0.662590000000     0.503530000000     0.068150000000    -0.0107859  
C127     C      0.607600000000     0.559630000000     0.100100000000    -0.0118516  
C128     C      0.821180000000     0.663790000000     0.108970000000    -0.0563225  
C129     C      0.854930000000     0.089290000000     0.064620000000    -0.0304488  
C130     C      0.671840000000     0.269580000000     0.996910000000    -0.0313977  
C131     C      0.658750000000     0.329360000000     0.065060000000    -0.00597707 
C132     C      0.623450000000     0.298050000000     0.002710000000    -0.00301511 
C133     C      0.719300000000     0.166420000000     0.042410000000    -0.0544332  
C134     C      0.815590000000     0.195490000000     0.014570000000    -0.0537177  
C135     C      0.730250000000     0.217650000000     0.030550000000     0.0611272  
C136     C      0.705720000000     0.299650000000     0.056900000000    -0.0305611  
C137     C      0.804920000000     0.144420000000     0.027110000000     0.0598571  
C138     C      0.833700000000     0.064530000000     0.001400000000    -0.0431616  
C139     C      0.756050000000     0.130000000000     0.040630000000    -0.0559598  
C140     C      0.879810000000     0.031180000000     0.997380000000     0.039614   
C141     C      0.904070000000     0.061790000000     0.064610000000    -0.00609678 
C142     C      0.778580000000     0.231860000000     0.016050000000    -0.0568192  
C143     C      0.158670000000     0.152720000000     0.020690000000    -0.0307899  
C144     C      0.401330000000     0.285810000000     0.976890000000    -0.0238371  
C145     C      0.391350000000     0.355770000000     0.039000000000    -0.0211441  
C146     C      0.437330000000     0.333900000000     0.983020000000    -0.0165816  
C147     C      0.268440000000     0.260110000000     0.972650000000    -0.0546215  
C148     C      0.284560000000     0.161960000000     0.001930000000    -0.0541864  
C149     C      0.315440000000     0.250680000000     0.988260000000     0.0617367  
C150     C      0.355430000000     0.307810000000     0.034020000000    -0.0216442  
C151     C      0.236910000000     0.172180000000     0.987980000000     0.06174    
C152     C      0.172160000000     0.113800000000     0.959080000000    -0.0433996  
C153     C      0.229300000000     0.221270000000     0.972520000000    -0.0567888  
C154     C      0.121380000000     0.081660000000     0.966080000000     0.0417965  
C155     C      0.127700000000     0.105820000000     0.035900000000    -0.00185613 
C156     C      0.323600000000     0.200830000000     0.002250000000    -0.056664   
Cu1      Cu     0.024590000000     0.927170000000     0.002030000000     0.839217   
Cu2      Cu     0.036710000000     0.949530000000     0.068910000000     0.843323   
Cu3      Cu     0.980590000000     0.094520000000     0.515090000000     0.839598   
Cu4      Cu     0.968280000000     0.079670000000     0.582950000000     0.841518   
Cu5      Cu     0.561410000000     0.475330000000     0.057100000000     1.18169    
Cu6      Cu     0.489870000000     0.398620000000     0.035050000000     1.18136    
Cu7      Cu     0.513730000000     0.622230000000     0.522730000000     1.17635    
Cu8      Cu     0.433110000000     0.552360000000     0.538470000000     1.17004    
H1       H      0.448060000000     0.582430000000     0.761610000000     0.0404739  
H2       H      0.493530000000     0.451460000000     0.854340000000     0.0338151  
H3       H      0.565620000000     0.594860000000     0.887860000000     0.0390911  
H4       H      0.562610000000     0.534120000000     0.649000000000     0.0365329  
H5       H      0.465160000000     0.462270000000     0.917140000000     0.0365667  
H6       H      0.524920000000     0.657650000000     0.720020000000     0.0338771  
H7       H      0.518120000000     0.495150000000     0.701770000000     0.0334261  
H8       H      0.501830000000     0.670700000000     0.652090000000     0.0284982  
H9       H      0.447890000000     0.562510000000     0.828990000000     0.0439214  
H10      H      0.510770000000     0.414100000000     0.917570000000     0.0365601  
H11      H      0.603640000000     0.543980000000     0.754330000000     0.0437362  
H12      H      0.559300000000     0.455730000000     0.867520000000     0.0367161  
H13      H      0.502180000000     0.508010000000     0.633660000000     0.0395751  
H14      H      0.531920000000     0.568860000000     0.945990000000     0.0288281  
H15      H      0.466770000000     0.624110000000     0.704680000000     0.0363444  
H16      H      0.463180000000     0.531440000000     0.693660000000     0.0380994  
H17      H      0.602620000000     0.520890000000     0.820750000000     0.0396854  
H18      H      0.601150000000     0.538440000000     0.882420000000     0.0406138  
H19      H      0.564530000000     0.648370000000     0.660570000000     0.0325901  
H20      H      0.614270000000     0.586160000000     0.985730000000     0.0369062  
H21      H      0.488050000000     0.435670000000     0.349670000000     0.0407194  
H22      H      0.423040000000     0.376660000000     0.208850000000     0.0344068  
H23      H      0.573130000000     0.438350000000     0.228810000000     0.0400974  
H24      H      0.377300000000     0.571380000000     0.396200000000     0.035522   
H25      H      0.482420000000     0.322280000000     0.177240000000     0.03466    
H26      H      0.518000000000     0.574630000000     0.342290000000     0.0342654  
H27      H      0.380170000000     0.487510000000     0.365480000000     0.034771   
H28      H      0.519620000000     0.611260000000     0.406820000000     0.0375838  
H29      H      0.506930000000     0.383500000000     0.294670000000     0.0438741  
H30      H      0.445490000000     0.353860000000     0.142720000000     0.0382996  
H31      H      0.432230000000     0.553340000000     0.277470000000     0.0439926  
H32      H      0.444790000000     0.432510000000     0.181420000000     0.0369486  
H33      H      0.380770000000     0.521630000000     0.431170000000     0.0424732  
H34      H      0.568770000000     0.357220000000     0.192660000000     0.0252749  
H35      H      0.517980000000     0.524740000000     0.377800000000     0.0389336  
H36      H      0.435640000000     0.472640000000     0.391730000000     0.0384611  
H37      H      0.453710000000     0.502280000000     0.222320000000     0.0399863  
H38      H      0.537390000000     0.469570000000     0.192970000000     0.0459615  
H39      H      0.464980000000     0.627460000000     0.380500000000     0.0347394  
H40      H      0.651960000000     0.373590000000     0.152820000000     0.0276044  
H41      H      0.167380000000     0.858750000000     0.512150000000     0.0405638  
H42      H      0.368950000000     0.824060000000     0.502210000000     0.0345208  
H43      H      0.273560000000     0.738170000000     0.577870000000     0.0380289  
H44      H      0.171760000000     0.050830000000     0.530260000000     0.037109   
H45      H      0.384270000000     0.737330000000     0.485920000000     0.0362463  
H46      H      0.161050000000     0.921960000000     0.604650000000     0.0338855  
H47      H      0.199790000000     0.977290000000     0.495690000000     0.0344053  
H48      H      0.086930000000     0.977150000000     0.606110000000     0.0402537  
H49      H      0.224210000000     0.788000000000     0.505160000000     0.0438452  
H50      H      0.437070000000     0.760740000000     0.513560000000     0.0386521  
H51      H      0.277540000000     0.941760000000     0.582420000000     0.0438561  
H52      H      0.387860000000     0.815750000000     0.550260000000     0.0354981  
H53      H      0.124970000000     0.032210000000     0.495680000000     0.0410045  
H54      H      0.311780000000     0.670300000000     0.546270000000     0.0280934  
H55      H      0.117710000000     0.908370000000     0.566370000000     0.038075   
H56      H      0.140130000000     0.940850000000     0.502670000000     0.0373958  
H57      H      0.332910000000     0.869680000000     0.577420000000     0.0397997  
H58      H      0.332450000000     0.769530000000     0.593260000000     0.041548   
H59      H      0.146780000000     0.013870000000     0.603800000000     0.037806   
H60      H      0.312120000000     0.628910000000     0.613600000000     0.0298152  
H61      H      0.736670000000     0.906550000000     0.501030000000     0.0406653  
H62      H      0.636620000000     0.732990000000     0.445700000000     0.0329845  
H63      H      0.629380000000     0.765700000000     0.562150000000     0.0308062  
H64      H      0.923800000000     0.896550000000     0.485450000000     0.0363069  
H65      H      0.549840000000     0.712210000000     0.468290000000     0.0331891  
H66      H      0.819320000000     0.862930000000     0.572000000000     0.0339358  
H67      H      0.841950000000     0.884040000000     0.454920000000     0.0341485  
H68      H      0.883880000000     0.934160000000     0.585920000000     0.0407823  
H69      H      0.655310000000     0.856080000000     0.496740000000     0.0437005  
H70      H      0.578530000000     0.653010000000     0.455790000000     0.0327568  
H71      H      0.813180000000     0.764830000000     0.512530000000     0.0436762  
H72      H      0.661120000000     0.684890000000     0.476310000000     0.0361079  
H73      H      0.906040000000     0.957710000000     0.467190000000     0.0405492  
H74      H      0.546300000000     0.736300000000     0.534790000000     0.0362448  
H75      H      0.803920000000     0.923760000000     0.551200000000     0.0389542  
H76      H      0.817130000000     0.936310000000     0.481450000000     0.0377553  
H77      H      0.731800000000     0.714520000000     0.509570000000     0.0402972  
H78      H      0.655140000000     0.704670000000     0.549720000000     0.0353293  
H79      H      0.909060000000     0.881450000000     0.560600000000     0.0359424  
H80      H      0.534770000000     0.719540000000     0.604150000000     0.00979454 
H81      H      0.777360000000     0.315500000000     0.497650000000     0.0400955  
H82      H      0.564890000000     0.341630000000     0.510920000000     0.0341213  
H83      H      0.685570000000     0.443090000000     0.549500000000     0.0382721  
H84      H      0.784950000000     0.129460000000     0.508180000000     0.036239   
H85      H      0.545730000000     0.423320000000     0.484960000000     0.0355012  
H86      H      0.772700000000     0.237760000000     0.596810000000     0.0333368  
H87      H      0.765410000000     0.210720000000     0.479360000000     0.0341576  
H88      H      0.846200000000     0.181980000000     0.601990000000     0.0393586  
H89      H      0.718400000000     0.383650000000     0.491470000000     0.0432379  
H90      H      0.503960000000     0.411110000000     0.523710000000     0.0402597  
H91      H      0.674030000000     0.232140000000     0.573250000000     0.0429696  
H92      H      0.565100000000     0.366410000000     0.558300000000     0.0355975  
H93      H      0.839680000000     0.155510000000     0.483450000000     0.040687   
H94      H      0.635800000000     0.499200000000     0.514020000000     0.0295767  
H95      H      0.824950000000     0.260200000000     0.567440000000     0.0386676  
H96      H      0.821350000000     0.243890000000     0.499260000000     0.0374719  
H97      H      0.617350000000     0.302710000000     0.569900000000     0.0395659  
H98      H      0.634490000000     0.421970000000     0.580190000000     0.0423387  
H99      H      0.788820000000     0.147170000000     0.586870000000     0.0375484  
H100     H      0.644270000000     0.576550000000     0.562260000000     0.0373485  
H101     H      0.135180000000     0.386070000000     0.620380000000     0.0400062  
H102     H      0.346890000000     0.419650000000     0.619490000000     0.0321859  
H103     H      0.248940000000     0.493670000000     0.545770000000     0.036816   
H104     H      0.094400000000     0.197150000000     0.618110000000     0.0404973  
H105     H      0.377500000000     0.510680000000     0.609020000000     0.0372195  
H106     H      0.120280000000     0.321360000000     0.526650000000     0.0336102  
H107     H      0.130580000000     0.275390000000     0.640130000000     0.0341889  
H108     H      0.035590000000     0.266070000000     0.522900000000     0.0361947  
H109     H      0.205880000000     0.452240000000     0.621600000000     0.0431093  
H110     H      0.421270000000     0.467660000000     0.589090000000     0.0356323  
H111     H      0.222340000000     0.289280000000     0.550120000000     0.0447665  
H112     H      0.354800000000     0.405320000000     0.570390000000     0.0358586  
H113     H      0.039350000000     0.229370000000     0.630420000000     0.037633   
H114     H      0.319790000000     0.553940000000     0.567060000000     0.0264507  
H115     H      0.072660000000     0.335500000000     0.560420000000     0.0354626  
H116     H      0.079690000000     0.312450000000     0.623770000000     0.0333802  
H117     H      0.290770000000     0.356530000000     0.548610000000     0.0407118  
H118     H      0.292450000000     0.451720000000     0.523900000000     0.0429965  
H119     H      0.093090000000     0.233810000000     0.520730000000     0.0413875  
H120     H      0.284810000000     0.591820000000     0.502950000000     0.0305148  
H121     H      0.197510000000     0.691260000000     0.078450000000     0.0404255  
H122     H      0.313830000000     0.568190000000     0.020910000000     0.0342721  
H123     H      0.383830000000     0.636740000000     0.117280000000     0.0400211  
H124     H      0.199830000000     0.850150000000     0.990600000000     0.0379771  
H125     H      0.342320000000     0.498680000000     0.060480000000     0.0346293  
H126     H      0.239600000000     0.809950000000     0.101430000000     0.0345578  
H127     H      0.208760000000     0.757240000000     0.990600000000     0.0341287  
H128     H      0.168990000000     0.869860000000     0.097370000000     0.0411178  
H129     H      0.247350000000     0.615840000000     0.089730000000     0.0435737  
H130     H      0.378450000000     0.502940000000     0.017740000000     0.0377557  
H131     H      0.326710000000     0.771380000000     0.026010000000     0.0442377  
H132     H      0.377120000000     0.597850000000     0.016780000000     0.0389534  
H133     H      0.138490000000     0.817190000000     0.985260000000     0.0403573  
H134     H      0.385760000000     0.542720000000     0.121180000000     0.0245777  
H135     H      0.178970000000     0.777270000000     0.091190000000     0.0375146  
H136     H      0.161030000000     0.746350000000     0.026290000000     0.0377118  
H137     H      0.375910000000     0.695080000000     0.035880000000     0.0409088  
H138     H      0.418760000000     0.638050000000     0.073740000000     0.0440853  
H139     H      0.219960000000     0.885500000000     0.065430000000     0.0375232  
H140     H      0.478400000000     0.533980000000     0.150660000000     0.0339289  
H141     H      0.854590000000     0.660980000000     0.126070000000     0.0399764  
H142     H      0.647330000000     0.627260000000     0.124740000000     0.0340234  
H143     H      0.740800000000     0.531180000000     0.062420000000     0.0310643  
H144     H      0.891720000000     0.846090000000     0.104010000000     0.039487   
H145     H      0.610360000000     0.537440000000     0.126710000000     0.0352689  
H146     H      0.872290000000     0.710200000000     0.024190000000     0.0333439  
H147     H      0.857800000000     0.770700000000     0.133790000000     0.0342068  
H148     H      0.953240000000     0.767130000000     0.015980000000     0.0371466  
H149     H      0.784940000000     0.594430000000     0.132680000000     0.043558   
H150     H      0.570140000000     0.576100000000     0.098970000000     0.0346642  
H151     H      0.771320000000     0.736030000000     0.039850000000     0.0443658  
H152     H      0.638520000000     0.630090000000     0.074690000000     0.0361533  
H153     H      0.946090000000     0.819410000000     0.123870000000     0.0390563  
H154     H      0.668840000000     0.484340000000     0.095580000000     0.0362719  
H155     H      0.919590000000     0.701840000000     0.059530000000     0.0363702  
H156     H      0.910310000000     0.733200000000     0.121210000000     0.0342057  
H157     H      0.704190000000     0.667160000000     0.043970000000     0.0405579  
H158     H      0.697180000000     0.566470000000     0.034630000000     0.0369332  
H159     H      0.895540000000     0.799480000000     0.015310000000     0.0415987  
H160     H      0.702850000000     0.424770000000     0.041140000000     0.00858266 
H161     H      0.787760000000     0.271040000000     0.006270000000     0.0401061  
H162     H      0.858980000000     0.122170000000     0.084870000000     0.0342843  
H163     H      0.823900000000     0.079110000000     0.973080000000     0.0388009  
H164     H      0.633210000000     0.304800000000     0.083540000000     0.0360149  
H165     H      0.936270000000     0.091650000000     0.063800000000     0.0389027  
H166     H      0.662540000000     0.234720000000     0.979220000000     0.0342174  
H167     H      0.721740000000     0.287160000000     0.084050000000     0.0336549  
H168     H      0.610860000000     0.313500000000     0.975350000000     0.0308964  
H169     H      0.852860000000     0.207200000000     0.003950000000     0.0441994  
H170     H      0.906860000000     0.040790000000     0.091730000000     0.0398109  
H171     H      0.682150000000     0.154810000000     0.053310000000     0.0444383  
H172     H      0.823670000000     0.061870000000     0.074730000000     0.0363397  
H173     H      0.669250000000     0.365090000000     0.081330000000     0.029073   
H174     H      0.905610000000     0.049850000000     0.976020000000     0.0299685  
H175     H      0.700380000000     0.295300000000     0.981730000000     0.0366307  
H176     H      0.734610000000     0.325910000000     0.042580000000     0.0352663  
H177     H      0.746490000000     0.090860000000     0.050310000000     0.0402254  
H178     H      0.800270000000     0.040200000000     0.011740000000     0.0414529  
H179     H      0.593140000000     0.269690000000     0.012960000000     0.0421484  
H180     H      0.880660000000     0.960490000000     0.945400000000     0.0341833  
H181     H      0.359190000000     0.192680000000     0.015130000000     0.0411451  
H182     H      0.177880000000     0.173320000000     0.044740000000     0.0343783  
H183     H      0.198960000000     0.087910000000     0.945750000000     0.0414313  
H184     H      0.375510000000     0.389600000000     0.024900000000     0.0382032  
H185     H      0.150110000000     0.086780000000     0.057780000000     0.0422304  
H186     H      0.396840000000     0.279110000000     0.946210000000     0.0322274  
H187     H      0.317620000000     0.316680000000     0.044970000000     0.0318709  
H188     H      0.475410000000     0.325930000000     0.972320000000     0.0330954  
H189     H      0.290660000000     0.124530000000     0.014290000000     0.0453878  
H190     H      0.093090000000     0.118740000000     0.049800000000     0.034886   
H191     H      0.261460000000     0.298430000000     0.962250000000     0.0436185  
H192     H      0.133550000000     0.180030000000     0.006920000000     0.0386047  
H193     H      0.395530000000     0.364570000000     0.069370000000     0.0322977  
H194     H      0.121680000000     0.046180000000     0.948370000000     0.0325085  
H195     H      0.418590000000     0.251650000000     0.989440000000     0.0365155  
H196     H      0.369580000000     0.275340000000     0.050820000000     0.0370941  
H197     H      0.192500000000     0.230230000000     0.962080000000     0.041047   
H198     H      0.166880000000     0.145540000000     0.938570000000     0.0391891  
H199     H      0.423680000000     0.367550000000     0.967310000000     0.0354912  
H200     H      0.026000000000     0.084110000000     0.950330000000     0.0413115  
N1       N      0.534720000000     0.487190000000     0.942580000000    -0.18388    
N2       N      0.522760000000     0.527290000000     0.869580000000    -0.111264   
N3       N      0.528590000000     0.576030000000     0.713380000000    -0.113679   
N4       N      0.512570000000     0.592090000000     0.636260000000    -0.177449   
N5       N      0.523210000000     0.383960000000     0.148890000000    -0.186164   
N6       N      0.496840000000     0.408340000000     0.223050000000    -0.113078   
N7       N      0.447610000000     0.531040000000     0.349230000000    -0.11361    
N8       N      0.448580000000     0.571460000000     0.422810000000    -0.181458   
N9       N      0.386330000000     0.703640000000     0.539920000000    -0.182631   
N10      N      0.315050000000     0.780400000000     0.535690000000    -0.111341   
N11      N      0.187230000000     0.949740000000     0.551430000000    -0.113727   
N12      N      0.105040000000     0.014550000000     0.553260000000    -0.166734   
N13      N      0.571610000000     0.665580000000     0.514030000000    -0.231824   
N14      N      0.638590000000     0.753980000000     0.503500000000    -0.116318   
N15      N      0.829100000000     0.867180000000     0.512720000000    -0.114203   
N16      N      0.902010000000     0.948520000000     0.527440000000    -0.168503   
N17      N      0.562510000000     0.471770000000     0.531700000000    -0.18292    
N18      N      0.629640000000     0.390910000000     0.524980000000    -0.111343   
N19      N      0.761740000000     0.223870000000     0.538310000000    -0.113329   
N20      N      0.843490000000     0.158830000000     0.543980000000    -0.167138   
N21      N      0.377430000000     0.505670000000     0.549380000000    -0.23092    
N22      N      0.292410000000     0.451590000000     0.583820000000    -0.115013   
N23      N      0.133100000000     0.293160000000     0.581890000000    -0.112265   
N24      N      0.052520000000     0.222290000000     0.571580000000    -0.167147   
N25      N      0.417700000000     0.529680000000     0.067950000000    -0.183897   
N26      N      0.342980000000     0.604140000000     0.070790000000    -0.112588   
N27      N      0.231050000000     0.783150000000     0.045160000000    -0.113638   
N28      N      0.153780000000     0.853650000000     0.038850000000    -0.166726   
N29      N      0.613250000000     0.525900000000     0.067640000000    -0.231225   
N30      N      0.699590000000     0.585180000000     0.093220000000    -0.115772   
N31      N      0.857250000000     0.744460000000     0.077200000000    -0.112515   
N32      N      0.939790000000     0.813770000000     0.064120000000    -0.167313   
N33      N      0.909170000000     0.025760000000     0.032650000000    -0.16971    
N34      N      0.844810000000     0.108540000000     0.026810000000    -0.11134    
N35      N      0.691250000000     0.254060000000     0.033560000000    -0.113477   
N36      N      0.631130000000     0.340470000000     0.030280000000    -0.181938   
N37      N      0.113540000000     0.067940000000     0.006110000000    -0.171684   
N38      N      0.195570000000     0.134160000000     0.994050000000    -0.109695   
N39      N      0.351710000000     0.294000000000     0.993920000000    -0.116639   
N40      N      0.440780000000     0.345720000000     0.023210000000    -0.229648   
O1       O      0.087070000000     0.885660000000     0.006920000000    -0.396429   
O2       O      0.963140000000     0.971080000000     0.003900000000    -0.393867   
O3       O      0.068760000000     0.992110000000     0.990400000000    -0.401511   
O4       O      0.981590000000     0.864470000000     0.019930000000    -0.401002   
O5       O      0.991030000000     0.885290000000     0.080370000000    -0.399315   
O6       O      0.079960000000     0.012120000000     0.050820000000    -0.400933   
O7       O      0.974910000000     0.991410000000     0.064110000000    -0.399405   
O8       O      0.097910000000     0.905790000000     0.067280000000    -0.397869   
O9       O      0.047040000000     0.059930000000     0.521030000000    -0.397087   
O10      O      0.912880000000     0.127230000000     0.515590000000    -0.397933   
O11      O      0.015800000000     0.163800000000     0.529710000000    -0.399176   
O12      O      0.944220000000     0.023790000000     0.507330000000    -0.399908   
O13      O      0.929680000000     0.012480000000     0.568440000000    -0.401909   
O14      O      0.008760000000     0.147790000000     0.591050000000    -0.401356   
O15      O      0.904240000000     0.119010000000     0.577530000000    -0.396081   
O16      O      0.033520000000     0.042130000000     0.581500000000    -0.39662    
O17      O      0.550830000000     0.496230000000     0.005630000000    -0.477202   
O18      O      0.556760000000     0.439580000000     0.104150000000    -0.483458   
O19      O      0.606660000000     0.423940000000     0.040110000000    -0.491554   
O20      O      0.501410000000     0.510400000000     0.071750000000    -0.469141   
O21      O      0.447290000000     0.456070000000     0.042890000000    -0.484007   
O22      O      0.549120000000     0.359930000000     0.029280000000    -0.476317   
O23      O      0.492980000000     0.385130000000     0.088770000000    -0.479617   
O24      O      0.506280000000     0.426840000000     0.986070000000    -0.480793   
O25      O      0.495990000000     0.605210000000     0.471570000000    -0.483641   
O26      O      0.514600000000     0.632070000000     0.576870000000    -0.477944   
O27      O      0.548060000000     0.558310000000     0.528310000000    -0.475488   
O28      O      0.460890000000     0.670780000000     0.521760000000    -0.474526   
O29      O      0.401530000000     0.617530000000     0.546150000000    -0.476249   
O30      O      0.482790000000     0.501430000000     0.531040000000    -0.467588   
O31      O      0.465830000000     0.560980000000     0.587040000000    -0.472109   
O32      O      0.428140000000     0.554990000000     0.484180000000    -0.476871   
S1       S      0.618130000000     0.552470000000     0.956290000000    -0.042648   
S2       S      0.624590000000     0.415720000000     0.160120000000    -0.0403705  
S3       S      0.349380000000     0.667030000000     0.606830000000    -0.0411345  
S4       S      0.557520000000     0.680310000000     0.586180000000     0.0744155  
S5       S      0.628200000000     0.529220000000     0.576920000000    -0.0451635  
S6       S      0.319850000000     0.555190000000     0.500400000000    -0.0474546  
S7       S      0.470040000000     0.575950000000     0.128450000000    -0.0435265  
S8       S      0.663100000000     0.454320000000     0.033350000000     0.0811172  
S9       S      0.857880000000     0.968830000000     0.979190000000    -0.0411283  
S10      S      0.069080000000     0.116470000000     0.950280000000    -0.055182   


