data_structure

_audit_creation_method RASPA-1.0
_audit_creation_date 2023-6-4
_audit_author_name 'Poobodin Mano'

_cell_length_a    25.3457
_cell_length_b    26.3732
_cell_length_c    37.6197
_cell_angle_alpha 89.9988
_cell_angle_beta  89.9988
_cell_angle_gamma 93.6697
_cell_volume      25095.2

_symmetry_cell_setting          triclinic
_symmetry_space_group_name_Hall 'P 1'
_symmetry_space_group_name_H-M  'P 1'
_symmetry_Int_Tables_number     1

_symmetry_equiv_pos_as_xyz 'x,y,z'

loop_
_atom_site_label
_atom_site_type_symbol
_atom_site_fract_x
_atom_site_fract_y
_atom_site_fract_z
_atom_site_charge
C1       C      0.114450000000     0.974140000000     0.002720000000     0.407876   
C2       C      0.922940000000     0.046980000000     0.012790000000     0.397317   
C3       C      0.055600000000     0.102280000000     0.986900000000     0.403325   
C4       C      0.981770000000     0.918750000000     0.028420000000     0.402761   
C5       C      0.060690000000     0.904710000000     0.512830000000     0.399528   
C6       C      0.985560000000     0.089200000000     0.517710000000     0.410033   
C7       C      0.119060000000     0.035290000000     0.533540000000     0.409929   
C8       C      0.927580000000     0.958480000000     0.496950000000     0.40255    
C9       C      0.534650000000     0.522880000000     0.946350000000     0.476557   
C10      C      0.501980000000     0.494540000000     0.078410000000     0.472936   
C11      C      0.575470000000     0.434260000000     0.010610000000     0.480795   
C12      C      0.459870000000     0.585610000000     0.014860000000     0.467368   
C13      C      0.502530000000     0.484330000000     0.446580000000     0.485875   
C14      C      0.538850000000     0.503850000000     0.579180000000     0.484151   
C15      C      0.596250000000     0.436250000000     0.507450000000     0.468699   
C16      C      0.445360000000     0.553820000000     0.518360000000     0.48499    
C17      C      0.599220000000     0.552760000000     0.665260000000    -0.0345071  
C18      C      0.518590000000     0.506830000000     0.848450000000    -0.0313565  
C19      C      0.590030000000     0.561240000000     0.898220000000    -0.00218054 
C20      C      0.521860000000     0.487540000000     0.886480000000    -0.00221286 
C21      C      0.606340000000     0.512960000000     0.779260000000    -0.0542227  
C22      C      0.532860000000     0.571630000000     0.745790000000    -0.0539904  
C23      C      0.571960000000     0.540230000000     0.799910000000     0.0611081  
C24      C      0.583410000000     0.576540000000     0.859180000000    -0.0317405  
C25      C      0.565040000000     0.541890000000     0.725180000000     0.0602522  
C26      C      0.535380000000     0.484090000000     0.678880000000    -0.0841718  
C27      C      0.603250000000     0.513870000000     0.742190000000    -0.0559198  
C28      C      0.513990000000     0.480790000000     0.640790000000     0.17291    
C29      C      0.581360000000     0.555600000000     0.626510000000     0.00147482 
C30      C      0.536370000000     0.571160000000     0.782870000000    -0.0565615  
C31      C      0.511550000000     0.508150000000     0.348720000000    -0.0333428  
C32      C      0.453690000000     0.437680000000     0.164700000000    -0.0318572  
C33      C      0.519460000000     0.525110000000     0.139130000000    -0.00409014 
C34      C      0.446480000000     0.456120000000     0.126440000000    -0.00159844 
C35      C      0.438260000000     0.496680000000     0.247300000000    -0.0536575  
C36      C      0.506820000000     0.429070000000     0.276670000000    -0.053482   
C37      C      0.469630000000     0.468830000000     0.224830000000     0.0615642  
C38      C      0.523000000000     0.502940000000     0.176380000000    -0.0302149  
C39      C      0.477430000000     0.458840000000     0.299180000000     0.0607406  
C40      C      0.442090000000     0.442800000000     0.358460000000    -0.0830981  
C41      C      0.441850000000     0.491730000000     0.284170000000    -0.055568   
C42      C      0.458480000000     0.435070000000     0.397410000000     0.17191    
C43      C      0.533160000000     0.503610000000     0.386230000000    -0.000577544
C44      C      0.502930000000     0.433760000000     0.239770000000    -0.0562808  
C45      C      0.309570000000     0.596880000000     0.533970000000    -0.0342324  
C46      C      0.158370000000     0.815050000000     0.489720000000    -0.0304892  
C47      C      0.072680000000     0.820910000000     0.540890000000    -0.00669071 
C48      C      0.108050000000     0.840630000000     0.479460000000    -0.00639928 
C49      C      0.191270000000     0.698100000000     0.501420000000    -0.0539059  
C50      C      0.274860000000     0.726720000000     0.547080000000    -0.0533517  
C51      C      0.189540000000     0.743070000000     0.521120000000     0.0613726  
C52      C      0.123710000000     0.794780000000     0.548800000000    -0.0306699  
C53      C      0.276220000000     0.681350000000     0.527780000000     0.0603944  
C54      C      0.360280000000     0.663080000000     0.502270000000    -0.0831845  
C55      C      0.234450000000     0.667880000000     0.504170000000    -0.0554366  
C56      C      0.413060000000     0.640130000000     0.510800000000     0.17241    
C57      C      0.359100000000     0.570070000000     0.544170000000    -0.000197735
C58      C      0.232500000000     0.757800000000     0.543440000000    -0.0561536  
C59      C      0.641370000000     0.675310000000     0.518310000000    -0.0245175  
C60      C      0.845100000000     0.863450000000     0.454880000000    -0.0304661  
C61      C      0.834880000000     0.934090000000     0.513620000000    -0.00580555 
C62      C      0.866800000000     0.918900000000     0.451800000000    -0.00655419 
C63      C      0.723260000000     0.801430000000     0.467220000000    -0.0541316  
C64      C      0.770720000000     0.721480000000     0.500960000000    -0.054387   
C65      C      0.774580000000     0.809210000000     0.480710000000     0.0616968  
C66      C      0.813880000000     0.878700000000     0.515560000000    -0.0300988  
C67      C      0.718430000000     0.714480000000     0.489090000000     0.0614853  
C68      C      0.677140000000     0.636630000000     0.464950000000    -0.0768313  
C69      C      0.695460000000     0.754310000000     0.470970000000    -0.0561197  
C70      C      0.648950000000     0.585460000000     0.475400000000     0.160966   
C71      C      0.613450000000     0.624260000000     0.528050000000    -0.0194191  
C72      C      0.798940000000     0.768270000000     0.496510000000    -0.0563094  
C73      C      0.885020000000     0.175770000000     0.540960000000    -0.0332085  
C74      C      0.732410000000     0.393420000000     0.495210000000    -0.0315762  
C75      C      0.627030000000     0.349800000000     0.513090000000    -0.00258848 
C76      C      0.683900000000     0.420320000000     0.482890000000    -0.00276899 
C77      C      0.768220000000     0.263850000000     0.483280000000    -0.0537101  
C78      C      0.848650000000     0.292690000000     0.531330000000    -0.0537832  
C79      C      0.765020000000     0.308760000000     0.502850000000     0.0609869  
C80      C      0.678340000000     0.326900000000     0.524630000000    -0.0313787  
C81      C      0.852500000000     0.248440000000     0.511090000000     0.0604771  
C82      C      0.921570000000     0.200980000000     0.483320000000    -0.0831132  
C83      C      0.810960000000     0.233440000000     0.487690000000    -0.0555267  
C84      C      0.973350000000     0.175760000000     0.491300000000     0.168734   
C85      C      0.935870000000     0.151070000000     0.551200000000    -0.00490045 
C86      C      0.805020000000     0.322210000000     0.527780000000    -0.0560036  
C87      C      0.256830000000     0.094810000000     0.527180000000    -0.0323115  
C88      C      0.375890000000     0.348270000000     0.567340000000    -0.0222034  
C89      C      0.452700000000     0.350660000000     0.510880000000    -0.0204619  
C90      C      0.421420000000     0.389080000000     0.564750000000    -0.0197429  
C91      C      0.362310000000     0.214850000000     0.568490000000    -0.0542799  
C92      C      0.262230000000     0.223660000000     0.538670000000    -0.053635   
C93      C      0.350050000000     0.260720000000     0.552670000000     0.0619805  
C94      C      0.407480000000     0.309560000000     0.512610000000    -0.0215648  
C95      C      0.274900000000     0.177500000000     0.553730000000     0.0617391  
C96      C      0.217200000000     0.114080000000     0.584570000000    -0.0793158  
C97      C      0.325140000000     0.173370000000     0.568990000000    -0.0564732  
C98      C      0.184310000000     0.062650000000     0.580090000000     0.168074   
C99      C      0.209120000000     0.061780000000     0.514320000000     0.00647541 
C100     C      0.299410000000     0.264970000000     0.537980000000    -0.0565535  
C101     C      0.199290000000     0.873930000000     0.978650000000    -0.0330607  
C102     C      0.419990000000     0.718930000000     0.024240000000    -0.0316345  
C103     C      0.371410000000     0.618330000000     0.007820000000    -0.00372801 
C104     C      0.446510000000     0.671760000000     0.037220000000    -0.00309089 
C105     C      0.287240000000     0.758530000000     0.036390000000    -0.0536166  
C106     C      0.319230000000     0.833370000000     0.986980000000    -0.053753   
C107     C      0.333150000000     0.752920000000     0.016360000000     0.0606237  
C108     C      0.349150000000     0.668180000000     0.995650000000    -0.0308667  
C109     C      0.274150000000     0.839670000000     0.007740000000     0.0600113  
C110     C      0.229390000000     0.909360000000     0.035420000000    -0.0827923  
C111     C      0.257460000000     0.800940000000     0.031820000000    -0.0554538  
C112     C      0.205420000000     0.960280000000     0.027200000000     0.167771   
C113     C      0.175780000000     0.923910000000     0.968270000000    -0.00523736 
C114     C      0.348070000000     0.790150000000     0.990750000000    -0.0560072  
C115     C      0.707910000000     0.623900000000     0.010990000000    -0.0241396  
C116     C      0.889540000000     0.834330000000     0.072560000000    -0.0306206  
C117     C      0.963300000000     0.828060000000     0.013600000000    -0.00543592 
C118     C      0.945560000000     0.859780000000     0.074900000000    -0.00632286 
C119     C      0.834000000000     0.712610000000     0.061050000000    -0.0541346  
C120     C      0.747280000000     0.751980000000     0.027190000000    -0.0545339  
C121     C      0.838180000000     0.762280000000     0.047800000000     0.0617538  
C122     C      0.907360000000     0.803530000000     0.012290000000    -0.0303402  
C123     C      0.744040000000     0.701470000000     0.038720000000     0.0618043  
C124     C      0.664440000000     0.659010000000     0.062620000000    -0.0760609  
C125     C      0.787070000000     0.682470000000     0.057010000000    -0.0563054  
C126     C      0.612170000000     0.630900000000     0.051480000000     0.158929   
C127     C      0.655900000000     0.595590000000     0.000400000000    -0.0214914  
C128     C      0.793720000000     0.782480000000     0.031980000000    -0.0563455  
C129     C      0.615410000000     0.301060000000     0.997780000000    -0.0341623  
C130     C      0.835660000000     0.144520000000     0.038490000000    -0.0300519  
C131     C      0.835520000000     0.062900000000     0.986250000000    -0.00757214 
C132     C      0.859280000000     0.094200000000     0.047810000000    -0.00732012 
C133     C      0.716540000000     0.183700000000     0.029270000000    -0.0539396  
C134     C      0.748360000000     0.262950000000     0.983240000000    -0.0534698  
C135     C      0.762070000000     0.179680000000     0.008540000000     0.0606492  
C136     C      0.811150000000     0.113830000000     0.979300000000    -0.0303275  
C137     C      0.702190000000     0.266460000000     0.003410000000     0.0597791  
C138     C      0.686030000000     0.348550000000     0.028510000000    -0.0829378  
C139     C      0.687310000000     0.226870000000     0.027270000000    -0.0554674  
C140     C      0.663500000000     0.399940000000     0.019700000000     0.171507   
C141     C      0.588750000000     0.349200000000     0.987210000000    -0.000107024
C142     C      0.778570000000     0.220510000000     0.986120000000    -0.0559992  
C143     C      0.373010000000     0.365200000000     0.956890000000    -0.0240277  
C144     C      0.131540000000     0.216580000000     0.002770000000    -0.0304245  
C145     C      0.091970000000     0.160940000000     0.940270000000    -0.00620387 
C146     C      0.075260000000     0.192850000000     0.001660000000    -0.00525076 
C147     C      0.205070000000     0.307550000000     0.955490000000    -0.0544262  
C148     C      0.291740000000     0.266080000000     0.988030000000    -0.0541273  
C149     C      0.200830000000     0.257130000000     0.967270000000     0.0618682  
C150     C      0.148340000000     0.185630000000     0.942390000000    -0.0306829  
C151     C      0.294930000000     0.317310000000     0.978140000000     0.0615047  
C152     C      0.328670000000     0.391360000000     0.010920000000    -0.0761934  
C153     C      0.251940000000     0.337420000000     0.960480000000    -0.0562056  
C154     C      0.379660000000     0.420720000000     0.023130000000     0.156642   
C155     C      0.424140000000     0.393120000000     0.969680000000    -0.020683   
C156     C      0.245270000000     0.235920000000     0.982370000000    -0.0565445  
Cu1      Cu     0.009960000000     0.998600000000     0.976420000000     0.838861   
Cu2      Cu     0.027280000000     0.022510000000     0.038970000000     0.847152   
Cu3      Cu     0.034650000000     0.003210000000     0.483650000000     0.849716   
Cu4      Cu     0.011830000000     0.990650000000     0.546940000000     0.840187   
Cu5      Cu     0.562180000000     0.543000000000     0.020490000000     1.20638    
Cu6      Cu     0.473090000000     0.477020000000     0.004320000000     1.21122    
Cu7      Cu     0.556260000000     0.536670000000     0.505260000000     1.21644    
Cu8      Cu     0.484820000000     0.452990000000     0.520250000000     1.19631    
H1       H      0.509470000000     0.592700000000     0.798230000000     0.0404269  
H2       H      0.615560000000     0.591150000000     0.673520000000     0.0345877  
H3       H      0.502920000000     0.470730000000     0.697240000000     0.048448   
H4       H      0.627350000000     0.541590000000     0.900960000000     0.0357293  
H5       H      0.558560000000     0.589940000000     0.623100000000     0.034058   
H6       H      0.507540000000     0.473800000000     0.830910000000     0.0343933  
H7       H      0.621290000000     0.595630000000     0.849790000000     0.0342344  
H8       H      0.481380000000     0.474000000000     0.895040000000     0.0389841  
H9       H      0.503310000000     0.593370000000     0.733100000000     0.0441421  
H10      H      0.617110000000     0.560980000000     0.609420000000     0.0362272  
H11      H      0.633890000000     0.489010000000     0.792000000000     0.044429   
H12      H      0.631450000000     0.526120000000     0.667430000000     0.0381042  
H13      H      0.594090000000     0.596270000000     0.914720000000     0.0360225  
H14      H      0.474190000000     0.496620000000     0.640410000000    -0.000965136
H15      H      0.486770000000     0.533970000000     0.846660000000     0.0373065  
H16      H      0.552140000000     0.604210000000     0.857130000000     0.0367654  
H17      H      0.628710000000     0.490640000000     0.726960000000     0.0407729  
H18      H      0.567890000000     0.457840000000     0.681830000000     0.0590735  
H19      H      0.546590000000     0.454200000000     0.886860000000     0.0351151  
H20      H      0.476110000000     0.414300000000     0.641820000000     0.134545   
H21      H      0.527620000000     0.411830000000     0.222990000000     0.0416004  
H22      H      0.544830000000     0.521430000000     0.330990000000     0.0368195  
H23      H      0.423560000000     0.406250000000     0.348250000000     0.0491849  
H24      H      0.497130000000     0.560020000000     0.140440000000     0.0417157  
H25      H      0.569340000000     0.481900000000     0.385230000000     0.0397788  
H26      H      0.415210000000     0.420060000000     0.174270000000     0.0345632  
H27      H      0.536780000000     0.534110000000     0.194790000000     0.0364079  
H28      H      0.439450000000     0.422430000000     0.108880000000     0.0380261  
H29      H      0.534410000000     0.403690000000     0.287810000000     0.0447831  
H30      H      0.545390000000     0.542540000000     0.395740000000     0.0543982  
H31      H      0.412580000000     0.523890000000     0.236180000000     0.0453505  
H32      H      0.481710000000     0.537400000000     0.348370000000     0.0415956  
H33      H      0.560240000000     0.536710000000     0.130120000000     0.054972   
H34      H      0.480020000000     0.399530000000     0.399060000000    -0.000943243
H35      H      0.483080000000     0.408040000000     0.165030000000     0.0383109  
H36      H      0.552960000000     0.473810000000     0.176550000000     0.0399187  
H37      H      0.418730000000     0.515240000000     0.300920000000     0.0421479  
H38      H      0.411870000000     0.471630000000     0.357210000000     0.0604439  
H39      H      0.410540000000     0.478150000000     0.125290000000     0.0368893  
H40      H      0.398510000000     0.394120000000     0.416590000000     0.13715    
H41      H      0.233680000000     0.793250000000     0.557920000000     0.0424358  
H42      H      0.278990000000     0.588910000000     0.554810000000     0.0353922  
H43      H      0.367930000000     0.704930000000     0.499250000000     0.0495332  
H44      H      0.041800000000     0.791340000000     0.532750000000     0.0358439  
H45      H      0.369010000000     0.579360000000     0.572310000000     0.0337894  
H46      H      0.175310000000     0.798940000000     0.465180000000     0.034963   
H47      H      0.114640000000     0.763360000000     0.568020000000     0.0349531  
H48      H      0.118930000000     0.872270000000     0.460800000000     0.0417997  
H49      H      0.307360000000     0.738460000000     0.564530000000     0.0443727  
H50      H      0.349610000000     0.528360000000     0.542790000000     0.0419532  
H51      H      0.159380000000     0.686990000000     0.483320000000     0.0444441  
H52      H      0.294270000000     0.580600000000     0.508400000000     0.0404403  
H53      H      0.058900000000     0.838750000000     0.565690000000     0.0414048  
H54      H      0.432030000000     0.661610000000     0.533490000000    -0.000573916
H55      H      0.187950000000     0.843860000000     0.500840000000     0.0411786  
H56      H      0.152230000000     0.823110000000     0.561440000000     0.0401735  
H57      H      0.235060000000     0.634300000000     0.487740000000     0.0417714  
H58      H      0.344410000000     0.647790000000     0.476500000000     0.0618041  
H59      H      0.081230000000     0.812500000000     0.465170000000     0.0370729  
H60      H      0.463030000000     0.679900000000     0.481050000000     0.138489   
H61      H      0.839020000000     0.772960000000     0.506450000000     0.041317   
H62      H      0.652640000000     0.695920000000     0.543270000000     0.0326218  
H63      H      0.714580000000     0.629250000000     0.450960000000     0.0477915  
H64      H      0.802270000000     0.957180000000     0.504470000000     0.0357438  
H65      H      0.639030000000     0.602950000000     0.545990000000     0.0357017  
H66      H      0.832280000000     0.849880000000     0.428040000000     0.0351265  
H67      H      0.778310000000     0.876160000000     0.532980000000     0.0347874  
H68      H      0.902210000000     0.920770000000     0.434300000000     0.0416413  
H69      H      0.789150000000     0.690930000000     0.514430000000     0.0439751  
H70      H      0.576190000000     0.631110000000     0.542280000000     0.0342594  
H71      H      0.704340000000     0.832380000000     0.454570000000     0.0446459  
H72      H      0.613130000000     0.697940000000     0.503380000000     0.0382246  
H73      H      0.846810000000     0.947640000000     0.540600000000     0.0403279  
H74      H      0.675710000000     0.563400000000     0.492180000000    -0.00264634 
H75      H      0.877190000000     0.839750000000     0.464240000000     0.0394033  
H76      H      0.844740000000     0.856180000000     0.527890000000     0.040169   
H77      H      0.655540000000     0.749540000000     0.460750000000     0.0418823  
H78      H      0.651600000000     0.657030000000     0.446360000000     0.0595366  
H79      H      0.836120000000     0.941310000000     0.439200000000     0.0378228  
H80      H      0.666800000000     0.540970000000     0.436750000000     0.137348   
H81      H      0.802880000000     0.355480000000     0.544380000000     0.0407695  
H82      H      0.866610000000     0.189690000000     0.565690000000     0.0346858  
H83      H      0.930390000000     0.233980000000     0.465360000000     0.0504605  
H84      H      0.610860000000     0.328600000000     0.489530000000     0.036212   
H85      H      0.961550000000     0.179120000000     0.566420000000     0.0363861  
H86      H      0.764860000000     0.401370000000     0.475670000000     0.0346535  
H87      H      0.670360000000     0.285070000000     0.527340000000     0.0347382  
H88      H      0.693080000000     0.462040000000     0.484620000000     0.0392098  
H89      H      0.879400000000     0.303980000000     0.550250000000     0.0439694  
H90      H      0.925120000000     0.118520000000     0.569120000000     0.0409666  
H91      H      0.737060000000     0.252130000000     0.464770000000     0.0445396  
H92      H      0.856780000000     0.146940000000     0.528470000000     0.0404197  
H93      H      0.597680000000     0.344360000000     0.534960000000     0.0401228  
H94      H      0.002170000000     0.205520000000     0.502260000000    -0.000302908
H95      H      0.745350000000     0.409640000000     0.521340000000     0.0372979  
H96      H      0.690940000000     0.342340000000     0.551090000000     0.0395519  
H97      H      0.811340000000     0.198450000000     0.472760000000     0.0418291  
H98      H      0.894390000000     0.172910000000     0.469230000000     0.0600884  
H99      H      0.676500000000     0.411000000000     0.454420000000     0.0358459  
H100     H      0.011630000000     0.185380000000     0.446780000000     0.136373   
H101     H      0.289080000000     0.299690000000     0.525150000000     0.0419918  
H102     H      0.277850000000     0.111760000000     0.503570000000     0.0355415  
H103     H      0.191300000000     0.142190000000     0.596290000000     0.0486459  
H104     H      0.488090000000     0.337310000000     0.524660000000     0.0392761  
H105     H      0.191930000000     0.080510000000     0.490880000000     0.0429567  
H106     H      0.367150000000     0.340740000000     0.595910000000     0.0322065  
H107     H      0.421560000000     0.273850000000     0.501300000000     0.0324923  
H108     H      0.408580000000     0.425060000000     0.576240000000     0.0370453  
H109     H      0.223900000000     0.227060000000     0.526480000000     0.0464698  
H110     H      0.221970000000     0.024380000000     0.505270000000     0.0378398  
H111     H      0.401250000000     0.210900000000     0.579610000000     0.0446344  
H112     H      0.284730000000     0.071290000000     0.541750000000     0.0468372  
H113     H      0.463140000000     0.358170000000     0.482640000000     0.0369963  
H114     H      0.148620000000     0.063670000000     0.597390000000     0.00495594 
H115     H      0.340230000000     0.363060000000     0.554740000000     0.0371136  
H116     H      0.374070000000     0.321540000000     0.496010000000     0.0382677  
H117     H      0.335990000000     0.137760000000     0.580300000000     0.0424296  
H118     H      0.249990000000     0.109500000000     0.603760000000     0.0509653  
H119     H      0.455980000000     0.377030000000     0.580070000000     0.0469924  
H120     H      0.212820000000     0.021460000000     0.617470000000     0.137734   
H121     H      0.382050000000     0.786200000000     0.973840000000     0.0403602  
H122     H      0.211880000000     0.854950000000     0.953900000000     0.0344053  
H123     H      0.264710000000     0.916750000000     0.052690000000     0.0500548  
H124     H      0.348790000000     0.603920000000     0.031470000000     0.0433486  
H125     H      0.205630000000     0.946950000000     0.952450000000     0.0356003  
H126     H      0.429390000000     0.750490000000     0.043310000000     0.0346034  
H127     H      0.305480000000     0.661750000000     0.993080000000     0.0350208  
H128     H      0.490070000000     0.679220000000     0.035150000000     0.0386175  
H129     H      0.331770000000     0.861960000000     0.967560000000     0.0436047  
H130     H      0.141040000000     0.914800000000     0.950850000000     0.0407659  
H131     H      0.274310000000     0.729610000000     0.055490000000     0.0449168  
H132     H      0.168510000000     0.848450000000     0.991900000000     0.0402421  
H133     H      0.365010000000     0.589720000000     0.986260000000     0.0437702  
H134     H      0.237160000000     0.986200000000     0.015270000000    -0.00058879 
H135     H      0.437050000000     0.730120000000     0.997910000000     0.0367526  
H136     H      0.365440000000     0.679110000000     0.969020000000     0.0379305  
H137     H      0.221690000000     0.803340000000     0.047210000000     0.0417809  
H138     H      0.199590000000     0.884940000000     0.050350000000     0.0598711  
H139     H      0.437020000000     0.665940000000     0.065850000000     0.0366582  
H140     H      0.219260000000     0.997930000000     0.071000000000     0.13624    
H141     H      0.795560000000     0.821120000000     0.022150000000     0.0412281  
H142     H      0.730630000000     0.634150000000     0.986430000000     0.032565   
H143     H      0.655510000000     0.695070000000     0.076070000000     0.0476666  
H144     H      0.990110000000     0.799250000000     0.023300000000     0.0356029  
H145     H      0.634470000000     0.619050000000     0.981290000000     0.0367426  
H146     H      0.876860000000     0.821910000000     0.099680000000     0.0351278  
H147     H      0.907470000000     0.768770000000     0.995500000000     0.0349204  
H148     H      0.944730000000     0.894520000000     0.091580000000     0.0410632  
H149     H      0.714050000000     0.767340000000     0.013730000000     0.0437884  
H150     H      0.664570000000     0.559390000000     0.987190000000     0.0349799  
H151     H      0.867680000000     0.696840000000     0.073690000000     0.0446071  
H152     H      0.731200000000     0.598110000000     0.027290000000     0.0376484  
H153     H      0.976310000000     0.839430000000     0.986370000000     0.0399944  
H154     H      0.589810000000     0.655980000000     0.033840000000    -0.00142001 
H155     H      0.862050000000     0.862620000000     0.062900000000     0.0391494  
H156     H      0.881330000000     0.830650000000     0.999480000000     0.0405907  
H157     H      0.784990000000     0.644000000000     0.067150000000     0.0417188  
H158     H      0.685690000000     0.635310000000     0.081760000000     0.0592173  
H159     H      0.971680000000     0.833040000000     0.087960000000     0.0380384  
H160     H      0.563430000000     0.648510000000     0.088600000000     0.137608   
H161     H      0.814620000000     0.219850000000     0.970830000000     0.0408993  
H162     H      0.605850000000     0.271340000000     0.977350000000     0.0349155  
H163     H      0.729730000000     0.354760000000     0.031190000000     0.0488897  
H164     H      0.803340000000     0.034670000000     0.994430000000     0.0362869  
H165     H      0.597710000000     0.357540000000     0.958790000000     0.0331127  
H166     H      0.820670000000     0.161180000000     0.063440000000     0.0344344  
H167     H      0.777600000000     0.107370000000     0.960430000000     0.0346629  
H168     H      0.892850000000     0.102190000000     0.066400000000     0.0416259  
H169     H      0.761290000000     0.293630000000     0.965510000000     0.0438559  
H170     H      0.545240000000     0.341300000000     0.989310000000     0.0380983  
H171     H      0.704140000000     0.153450000000     0.047490000000     0.0440687  
H172     H      0.598570000000     0.287380000000     0.023640000000     0.0383965  
H173     H      0.852600000000     0.049240000000     0.961070000000     0.040762   
H174     H      0.686410000000     0.417440000000     0.996980000000     1.38764e-05
H175     H      0.867000000000     0.171530000000     0.027350000000     0.0392939  
H176     H      0.841760000000     0.139970000000     0.966590000000     0.0380742  
H177     H      0.653170000000     0.229010000000     0.044310000000     0.0408937  
H178     H      0.670140000000     0.334160000000     0.054510000000     0.0601366  
H179     H      0.828730000000     0.069660000000     0.061940000000     0.0371948  
H180     H      0.706080000000     0.447010000000     0.049430000000     0.138775   
H181     H      0.243250000000     0.196810000000     0.991240000000     0.0420239  
H182     H      0.383290000000     0.331710000000     0.940910000000     0.0318366  
H183     H      0.306630000000     0.376810000000     0.034810000000     0.0473974  
H184     H      0.066160000000     0.188100000000     0.927370000000     0.0363543  
H185     H      0.447970000000     0.366490000000     0.984810000000     0.0373896  
H186     H      0.132090000000     0.251320000000     0.019610000000     0.0352104  
H187     H      0.160960000000     0.197940000000     0.915240000000     0.0344508  
H188     H      0.062320000000     0.181640000000     0.028940000000     0.0404665  
H189     H      0.324820000000     0.249980000000     0.001160000000     0.0440663  
H190     H      0.447350000000     0.406880000000     0.946210000000     0.0355477  
H191     H      0.171350000000     0.324160000000     0.943530000000     0.0442029  
H192     H      0.350930000000     0.390850000000     0.939620000000     0.0372784  
H193     H      0.092110000000     0.126210000000     0.923520000000     0.0399515  
H194     H      0.402690000000     0.395940000000     0.040540000000    -0.000943193
H195     H      0.157290000000     0.189060000000     0.015420000000     0.0418174  
H196     H      0.175440000000     0.156900000000     0.951900000000     0.0395285  
H197     H      0.253870000000     0.376630000000     0.951830000000     0.0411845  
H198     H      0.303690000000     0.417930000000     0.996570000000     0.0578998  
H199     H      0.048850000000     0.222060000000     0.992080000000     0.034949   
H200     H      0.356090000000     0.452900000000     0.066170000000     0.138767   
N1       N      0.547770000000     0.510540000000     0.614940000000    -0.195569   
N2       N      0.553930000000     0.536440000000     0.687650000000    -0.107291   
N3       N      0.569960000000     0.531020000000     0.837720000000    -0.113123   
N4       N      0.545700000000     0.526660000000     0.910790000000    -0.182432   
N5       N      0.494810000000     0.477310000000     0.410760000000    -0.192904   
N6       N      0.488500000000     0.458560000000     0.336840000000    -0.107707   
N7       N      0.470860000000     0.480940000000     0.187410000000    -0.112952   
N8       N      0.492190000000     0.489100000000     0.114040000000    -0.177933   
N9       N      0.405240000000     0.586080000000     0.521770000000    -0.194351   
N10      N      0.322290000000     0.651920000000     0.531070000000    -0.107604   
N11      N      0.145470000000     0.774500000000     0.515720000000    -0.113525   
N12      N      0.080880000000     0.857780000000     0.511570000000    -0.167106   
N13      N      0.601000000000     0.594860000000     0.495710000000    -0.241395   
N14      N      0.689000000000     0.667220000000     0.497040000000    -0.111214   
N15      N      0.799920000000     0.859730000000     0.479640000000    -0.113992   
N16      N      0.878310000000     0.939020000000     0.487640000000    -0.168351   
N17      N      0.964500000000     0.135970000000     0.519040000000    -0.181863   
N18      N      0.897600000000     0.218310000000     0.516540000000    -0.108322   
N19      N      0.719430000000     0.338330000000     0.497790000000    -0.112929   
N20      N      0.636080000000     0.403970000000     0.503470000000    -0.179827   
N21      N      0.168850000000     0.053950000000     0.542540000000    -0.179958   
N22      N      0.237490000000     0.134340000000     0.550320000000    -0.103899   
N23      N      0.390860000000     0.301220000000     0.549840000000    -0.116358   
N24      N      0.435950000000     0.397340000000     0.527400000000    -0.22664    
N25      N      0.162550000000     0.952850000000     0.000380000000    -0.181695   
N26      N      0.244890000000     0.884460000000     0.002240000000    -0.108541   
N27      N      0.362380000000     0.708140000000     0.021930000000    -0.112816   
N28      N      0.427900000000     0.625460000000     0.017530000000    -0.178433   
N29      N      0.623260000000     0.584350000000     0.032010000000    -0.239522   
N30      N      0.696820000000     0.670220000000     0.030840000000    -0.111656   
N31      N      0.889000000000     0.790090000000     0.048530000000    -0.113913   
N32      N      0.965020000000     0.870840000000     0.038730000000    -0.168611   
N33      N      0.607200000000     0.394000000000     0.008650000000    -0.194445   
N34      N      0.672970000000     0.311740000000     0.000110000000    -0.107691   
N35      N      0.792290000000     0.135260000000     0.012890000000    -0.113709   
N36      N      0.874900000000     0.067930000000     0.015160000000    -0.166994   
N37      N      0.411910000000     0.436430000000     0.992100000000    -0.241719   
N38      N      0.341370000000     0.348510000000     0.987960000000    -0.111361   
N39      N      0.149740000000     0.229850000000     0.966460000000    -0.113982   
N40      N      0.072690000000     0.150070000000     0.976530000000    -0.16904    
O1       O      0.083480000000     0.972470000000     0.975690000000    -0.400261   
O2       O      0.937370000000     0.026900000000     0.983490000000    -0.395115   
O3       O      0.040460000000     0.069180000000     0.963460000000    -0.400139   
O4       O      0.982750000000     0.930010000000     0.995260000000    -0.401235   
O5       O      0.997050000000     0.951780000000     0.051900000000    -0.397312   
O6       O      0.054290000000     0.091170000000     0.020090000000    -0.400398   
O7       O      0.953720000000     0.048290000000     0.039890000000    -0.398668   
O8       O      0.099910000000     0.994600000000     0.031820000000    -0.375715   
O9       O      0.062260000000     0.932780000000     0.484940000000    -0.398993   
O10      O      0.005170000000     0.073010000000     0.488690000000    -0.377325   
O11      O      0.106140000000     0.031940000000     0.500610000000    -0.400441   
O12      O      0.961090000000     0.972150000000     0.472680000000    -0.397875   
O13      O      0.939920000000     0.962780000000     0.529920000000    -0.400617   
O14      O      0.085940000000     0.020710000000     0.557860000000    -0.39661    
O15      O      0.984810000000     0.061350000000     0.545720000000    -0.400681   
O16      O      0.040560000000     0.920520000000     0.541830000000    -0.395921   
O17      O      0.563180000000     0.547980000000     0.968810000000    -0.487473   
O18      O      0.539710000000     0.524830000000     0.067940000000    -0.463381   
O19      O      0.595390000000     0.478550000000     0.018100000000    -0.464257   
O20      O      0.508860000000     0.592290000000     0.021870000000    -0.475672   
O21      O      0.440200000000     0.541650000000     0.006370000000    -0.467689   
O22      O      0.526300000000     0.427480000000     0.003990000000    -0.483035   
O23      O      0.472240000000     0.470980000000     0.055860000000    -0.472718   
O24      O      0.497200000000     0.492380000000     0.956900000000    -0.489449   
O25      O      0.535140000000     0.519460000000     0.457440000000    -0.46651    
O26      O      0.563140000000     0.533020000000     0.556800000000    -0.490341   
O27      O      0.604840000000     0.483360000000     0.500840000000    -0.476028   
O28      O      0.491470000000     0.571220000000     0.509620000000    -0.469042   
O29      O      0.436650000000     0.506660000000     0.524590000000    -0.478801   
O30      O      0.550380000000     0.418790000000     0.516900000000    -0.479831   
O31      O      0.505140000000     0.469540000000     0.568460000000    -0.470827   
O32      O      0.478720000000     0.454790000000     0.468860000000    -0.469561   
O33      O      0.509220000000     0.429270000000     0.630880000000    -0.276174   
O34      O      0.412470000000     0.430080000000     0.418390000000    -0.271822   
O35      O      0.445630000000     0.645070000000     0.480540000000    -0.270191   
O36      O      0.634930000000     0.557990000000     0.444550000000    -0.28188    
O37      O      0.993300000000     0.156390000000     0.459570000000    -0.269893   
O38      O      0.214400000000     0.022550000000     0.591100000000    -0.281741   
O39      O      0.187740000000     0.981460000000     0.058990000000    -0.270744   
O40      O      0.582390000000     0.618100000000     0.081950000000    -0.281085   
O41      O      0.669330000000     0.431520000000     0.049780000000    -0.272565   
O42      O      0.366500000000     0.464180000000     0.041830000000    -0.283186   


