data_structure

_audit_creation_method RASPA-1.0
_audit_creation_date 2023-6-4
_audit_author_name 'Poobodin Mano'

_cell_length_a    25.0982
_cell_length_b    26.6518
_cell_length_c    36.6327
_cell_angle_alpha 89.9988
_cell_angle_beta  89.9988
_cell_angle_gamma 93.6807
_cell_volume      24453.5

_symmetry_cell_setting          triclinic
_symmetry_space_group_name_Hall 'P 1'
_symmetry_space_group_name_H-M  'P 1'
_symmetry_Int_Tables_number     1

_symmetry_equiv_pos_as_xyz 'x,y,z'

loop_
_atom_site_label
_atom_site_type_symbol
_atom_site_fract_x
_atom_site_fract_y
_atom_site_fract_z
_atom_site_charge
C1       C      0.070260000000     0.981910000000     0.015420000000     0.397111   
C2       C      0.873810000000     0.047860000000     0.008940000000     0.397259   
C3       C      0.007750000000     0.110060000000     0.015980000000     0.403359   
C4       C      0.936040000000     0.918580000000     0.008500000000     0.404037   
C5       C      0.132780000000     0.895680000000     0.556030000000     0.400869   
C6       C      0.019080000000     0.057460000000     0.549940000000     0.398349   
C7       C      0.161250000000     0.023690000000     0.576380000000     0.408453   
C8       C      0.986670000000     0.920650000000     0.530130000000     0.400019   
C9       C      0.477250000000     0.521370000000     0.944430000000     0.472863   
C10      C      0.465670000000     0.512970000000     0.083980000000     0.454668   
C11      C      0.528540000000     0.440650000000     0.014090000000     0.459678   
C12      C      0.419430000000     0.596580000000     0.014830000000     0.464847   
C13      C      0.531550000000     0.480450000000     0.461860000000     0.47322    
C14      C      0.608970000000     0.459410000000     0.589080000000     0.469481   
C15      C      0.641050000000     0.411140000000     0.503280000000     0.466292   
C16      C      0.507990000000     0.530380000000     0.552820000000     0.456648   
C17      C      0.573870000000     0.427620000000     0.677820000000    -0.0310505  
C18      C      0.544500000000     0.542380000000     0.857230000000    -0.0314998  
C19      C      0.445810000000     0.491030000000     0.883600000000    -0.00260453 
C20      C      0.514370000000     0.564030000000     0.889160000000    -0.00241512 
C21      C      0.575040000000     0.468210000000     0.799380000000    -0.0563835  
C22      C      0.539070000000     0.506420000000     0.733330000000    -0.0565121  
C23      C      0.532140000000     0.499800000000     0.799350000000     0.0608416  
C24      C      0.478070000000     0.471940000000     0.851410000000    -0.0319026  
C25      C      0.582760000000     0.475760000000     0.733440000000     0.0610037  
C26      C      0.631610000000     0.505600000000     0.679300000000    -0.0431467  
C27      C      0.600150000000     0.456570000000     0.766670000000    -0.0544644  
C28      C      0.663010000000     0.487840000000     0.645930000000     0.0363117  
C29      C      0.605210000000     0.408850000000     0.645390000000    -0.00358059 
C30      C      0.514320000000     0.518490000000     0.766080000000    -0.0541428  
C31      C      0.511530000000     0.539110000000     0.369610000000    -0.032103   
C32      C      0.465570000000     0.462110000000     0.179650000000    -0.0312808  
C33      C      0.489960000000     0.556600000000     0.141400000000    -0.00586861 
C34      C      0.439260000000     0.470060000000     0.142790000000    -0.0039661  
C35      C      0.526330000000     0.482670000000     0.250770000000    -0.0570264  
C36      C      0.451430000000     0.519200000000     0.298960000000    -0.0559906  
C37      C      0.481770000000     0.505960000000     0.236990000000     0.0615811  
C38      C      0.511290000000     0.544250000000     0.179410000000    -0.0300033  
C39      C      0.495550000000     0.495230000000     0.312920000000     0.0599858  
C40      C      0.460710000000     0.459750000000     0.369680000000    -0.0427895  
C41      C      0.532950000000     0.477300000000     0.288500000000    -0.0534403  
C42      C      0.473240000000     0.450260000000     0.410600000000     0.0398906  
C43      C      0.535580000000     0.532300000000     0.407180000000     3.74155e-05
C44      C      0.444700000000     0.524240000000     0.261360000000    -0.0545292  
C45      C      0.224420000000     0.803220000000     0.595360000000    -0.0307396  
C46      C      0.452760000000     0.651610000000     0.554650000000    -0.0330076  
C47      C      0.416180000000     0.548200000000     0.573500000000    -0.00266618 
C48      C      0.490910000000     0.616350000000     0.572630000000    -0.000786673
C49      C      0.362730000000     0.717380000000     0.587680000000    -0.0536792  
C50      C      0.280570000000     0.707580000000     0.536300000000    -0.0536537  
C51      C      0.360890000000     0.676520000000     0.563490000000     0.0604394  
C52      C      0.379370000000     0.586580000000     0.557870000000    -0.0322578  
C53      C      0.281210000000     0.747280000000     0.561500000000     0.0603324  
C54      C      0.248830000000     0.820080000000     0.530680000000    -0.0413563  
C55      C      0.324270000000     0.753050000000     0.586240000000    -0.0553749  
C56      C      0.220530000000     0.869550000000     0.536470000000     0.0335723  
C57      C      0.172100000000     0.829100000000     0.591710000000    -0.00366954 
C58      C      0.320400000000     0.673110000000     0.536700000000    -0.055271   
C59      C      0.719270000000     0.616000000000     0.475520000000    -0.0256933  
C60      C      0.850950000000     0.852450000000     0.532370000000    -0.029616   
C61      C      0.939530000000     0.872190000000     0.481600000000    -0.00687486 
C62      C      0.902020000000     0.877770000000     0.547670000000    -0.00525165 
C63      C      0.824910000000     0.733290000000     0.519230000000    -0.0537875  
C64      C      0.738390000000     0.746880000000     0.473010000000    -0.0547566  
C65      C      0.823690000000     0.777560000000     0.498860000000     0.061942   
C66      C      0.887010000000     0.841970000000     0.472250000000    -0.0294867  
C67      C      0.740110000000     0.702260000000     0.493140000000     0.0616624  
C68      C      0.664740000000     0.657690000000     0.522460000000    -0.0257629  
C69      C      0.783360000000     0.696280000000     0.516890000000    -0.0565632  
C70      C      0.622600000000     0.614180000000     0.517670000000    -0.00850761 
C71      C      0.676180000000     0.572770000000     0.474360000000    -0.0129282  
C72      C      0.779470000000     0.784760000000     0.476200000000    -0.0566093  
C73      C      0.709460000000     0.296880000000     0.518080000000    -0.0314416  
C74      C      0.955030000000     0.162840000000     0.506640000000    -0.0301252  
C75      C      0.954140000000     0.112610000000     0.577390000000    -0.0069647  
C76      C      0.005150000000     0.138960000000     0.520240000000    -0.00719534 
C77      C      0.873810000000     0.254940000000     0.546120000000    -0.0539209  
C78      C      0.804750000000     0.227400000000     0.488680000000    -0.0540056  
C79      C      0.880480000000     0.210020000000     0.527250000000     0.0607381  
C80      C      0.905630000000     0.137140000000     0.561360000000    -0.0303342  
C81      C      0.799220000000     0.273170000000     0.506720000000     0.0605167  
C82      C      0.774170000000     0.358230000000     0.491720000000    -0.0428511  
C83      C      0.833100000000     0.285910000000     0.536450000000    -0.0560128  
C84      C      0.729410000000     0.387070000000     0.474000000000     0.0369593  
C85      C      0.663230000000     0.322590000000     0.500340000000    -0.00499939 
C86      C      0.844340000000     0.195650000000     0.499130000000    -0.0562538  
C87      C      0.237910000000     0.126430000000     0.607680000000    -0.0316031  
C88      C      0.444780000000     0.294120000000     0.522240000000    -0.0226394  
C89      C      0.440450000000     0.387030000000     0.561990000000    -0.0172943  
C90      C      0.473070000000     0.343380000000     0.509360000000    -0.0180622  
C91      C      0.318500000000     0.246360000000     0.543260000000    -0.0543313  
C92      C      0.365760000000     0.180340000000     0.591030000000    -0.0549359  
C93      C      0.369940000000     0.258510000000     0.556660000000     0.0617948  
C94      C      0.411170000000     0.338640000000     0.575650000000    -0.0229332  
C95      C      0.314490000000     0.168110000000     0.577520000000     0.0622562  
C96      C      0.282490000000     0.085940000000     0.556150000000    -0.0427824  
C97      C      0.290870000000     0.201420000000     0.553470000000    -0.056696   
C98      C      0.260760000000     0.034580000000     0.569760000000     0.0361355  
C99      C      0.213810000000     0.075090000000     0.620540000000    -0.00613225 
C100     C      0.393470000000     0.225070000000     0.580690000000    -0.0565166  
C101     C      0.385510000000     0.732310000000     0.010730000000    -0.0311357  
C102     C      0.162870000000     0.890320000000     0.043880000000    -0.030455   
C103     C      0.155410000000     0.963140000000     0.985080000000    -0.00720879 
C104     C      0.139470000000     0.941190000000     0.051220000000    -0.00717395 
C105     C      0.279950000000     0.849560000000     0.033490000000    -0.0540307  
C106     C      0.251150000000     0.769400000000     0.986970000000    -0.0531069  
C107     C      0.234240000000     0.851940000000     0.011680000000     0.0604316  
C108     C      0.179220000000     0.912000000000     0.980090000000    -0.0304062  
C109     C      0.297420000000     0.767390000000     0.008310000000     0.0594635  
C110     C      0.307770000000     0.684460000000     0.032750000000    -0.0420888  
C111     C      0.310640000000     0.807540000000     0.032480000000    -0.0554486  
C112     C      0.331420000000     0.633470000000     0.024620000000     0.0378845  
C113     C      0.414420000000     0.685470000000     0.000620000000    -0.00509015 
C114     C      0.219270000000     0.810570000000     0.989050000000    -0.0558307  
C115     C      0.897490000000     0.785270000000     0.035440000000    -0.0302402  
C116     C      0.647890000000     0.648260000000     0.989690000000    -0.0216692  
C117     C      0.623000000000     0.572090000000     0.043830000000    -0.0195715  
C118     C      0.603150000000     0.607530000000     0.984870000000    -0.0207262  
C119     C      0.782570000000     0.660200000000     0.003970000000    -0.0545432  
C120     C      0.763180000000     0.755500000000     0.031000000000    -0.0544344  
C121     C      0.732250000000     0.669070000000     0.018210000000     0.061599   
C122     C      0.667880000000     0.612970000000     0.049790000000    -0.0227186  
C123     C      0.812480000000     0.747300000000     0.015140000000     0.0623083  
C124     C      0.865650000000     0.801650000000     0.973610000000    -0.0421507  
C125     C      0.822810000000     0.698880000000     0.002790000000    -0.0571819  
C126     C      0.912190000000     0.843020000000     0.971190000000     0.038832   
C127     C      0.923030000000     0.838170000000     0.040800000000    -0.00275332 
C128     C      0.723400000000     0.716700000000     0.032870000000    -0.056432   
C129     C      0.642440000000     0.358650000000     0.996070000000    -0.0312493  
C130     C      0.770780000000     0.124660000000     0.044150000000    -0.0303937  
C131     C      0.807260000000     0.092050000000     0.973050000000    -0.00727079 
C132     C      0.790150000000     0.071560000000     0.039230000000    -0.00760395 
C133     C      0.732900000000     0.226480000000     0.038500000000    -0.0553096  
C134     C      0.650370000000     0.239230000000     0.988770000000    -0.0558239  
C135     C      0.720510000000     0.188700000000     0.012230000000     0.0596986  
C136     C      0.789010000000     0.144990000000     0.980360000000    -0.0302018  
C137     C      0.659930000000     0.274950000000     0.016830000000     0.0595229  
C138     C      0.569960000000     0.304460000000     0.019110000000    -0.0420973  
C139     C      0.702220000000     0.268530000000     0.041060000000    -0.0537944  
C140     C      0.536690000000     0.349020000000     0.029960000000     0.0362026  
C141     C      0.616130000000     0.406360000000     0.007880000000    -0.00506073 
C142     C      0.679470000000     0.196220000000     0.987170000000    -0.0533754  
C143     C      0.301030000000     0.384890000000     0.980190000000    -0.0250778  
C144     C      0.085990000000     0.214010000000     0.053140000000    -0.0305688  
C145     C      0.032080000000     0.190350000000     0.984320000000    -0.00581725 
C146     C      0.030500000000     0.186830000000     0.052580000000    -0.00629789 
C147     C      0.144010000000     0.327070000000     0.017770000000    -0.0544152  
C148     C      0.241080000000     0.281200000000     0.021410000000    -0.0550362  
C149     C      0.144130000000     0.274770000000     0.020910000000     0.0617735  
C150     C      0.087720000000     0.216610000000     0.986050000000    -0.0301154  
C151     C      0.240930000000     0.333440000000     0.018230000000     0.0628369  
C152     C      0.298070000000     0.398860000000     0.046520000000    -0.0208568  
C153     C      0.192030000000     0.356370000000     0.016280000000    -0.0573121  
C154     C      0.354630000000     0.422760000000     0.044490000000    -0.0191112  
C155     C      0.356880000000     0.411810000000     0.978840000000    -0.0130203  
C156     C      0.193130000000     0.251880000000     0.022550000000    -0.0564018  
Cu1      Cu     0.974930000000     0.016280000000     0.978630000000     0.844338   
Cu2      Cu     0.968680000000     0.012480000000     0.045840000000     0.839269   
Cu3      Cu     0.087790000000     0.981420000000     0.520860000000     0.847228   
Cu4      Cu     0.058680000000     0.967670000000     0.584720000000     0.84336    
Cu5      Cu     0.519950000000     0.548960000000     0.016110000000     1.16284    
Cu6      Cu     0.426760000000     0.487720000000     0.011790000000     1.17621    
Cu7      Cu     0.607840000000     0.510250000000     0.519630000000     1.18478    
Cu8      Cu     0.534050000000     0.430130000000     0.530710000000     1.18202    
H1       H      0.481200000000     0.542600000000     0.765600000000     0.0441561  
H2       H      0.559110000000     0.394540000000     0.694350000000     0.0341852  
H3       H      0.658960000000     0.528980000000     0.697360000000     0.0393381  
H4       H      0.412990000000     0.512760000000     0.872640000000     0.0356491  
H5       H      0.638650000000     0.387660000000     0.656100000000     0.0338665  
H6       H      0.565790000000     0.574050000000     0.842290000000     0.0343469  
H7       H      0.449960000000     0.451660000000     0.832160000000     0.0343292  
H8       H      0.543740000000     0.583140000000     0.908040000000     0.0371881  
H9       H      0.524100000000     0.520950000000     0.708000000000     0.0410946  
H10      H      0.579180000000     0.381850000000     0.629210000000     0.0404693  
H11      H      0.589340000000     0.452920000000     0.824660000000     0.0403177  
H12      H      0.538750000000     0.446980000000     0.667610000000     0.0409442  
H13      H      0.427530000000     0.458120000000     0.898750000000     0.0369737  
H14      H      0.696470000000     0.466740000000     0.656700000000     0.0290451  
H15      H      0.574780000000     0.517520000000     0.868110000000     0.0379905  
H16      H      0.506520000000     0.444840000000     0.861720000000     0.0377514  
H17      H      0.633210000000     0.432380000000     0.767140000000     0.0437264  
H18      H      0.599260000000     0.529230000000     0.669810000000     0.0429168  
H19      H      0.488570000000     0.593040000000     0.878400000000     0.0346217  
H20      H      0.410300000000     0.542340000000     0.251080000000     0.044289   
H21      H      0.539420000000     0.564840000000     0.353630000000     0.0342911  
H22      H      0.454940000000     0.422650000000     0.355750000000     0.0389853  
H23      H      0.458530000000     0.583800000000     0.144720000000     0.0355812  
H24      H      0.579160000000     0.527970000000     0.403920000000     0.0374249  
H25      H      0.439290000000     0.435050000000     0.195730000000     0.0339958  
H26      H      0.518350000000     0.580030000000     0.194860000000     0.0338698  
H27      H      0.439210000000     0.434160000000     0.127300000000     0.0289577  
H28      H      0.422280000000     0.534090000000     0.317070000000     0.0398541  
H29      H      0.531670000000     0.567240000000     0.423340000000     0.034174   
H30      H      0.555570000000     0.468410000000     0.232400000000     0.0406904  
H31      H      0.473020000000     0.557420000000     0.372310000000     0.0359264  
H32      H      0.522830000000     0.576370000000     0.125630000000     0.0395501  
H33      H      0.490800000000     0.413040000000     0.412450000000     0.0315576  
H34      H      0.504690000000     0.445330000000     0.175670000000     0.0364531  
H35      H      0.550240000000     0.526750000000     0.176750000000     0.0360827  
H36      H      0.567340000000     0.459220000000     0.298790000000     0.0446754  
H37      H      0.422480000000     0.478500000000     0.366400000000     0.0393407  
H38      H      0.397520000000     0.479160000000     0.148710000000     0.0338906  
H39      H      0.318160000000     0.643070000000     0.516820000000     0.0405633  
H40      H      0.218680000000     0.772660000000     0.615970000000     0.0349293  
H41      H      0.233490000000     0.802790000000     0.504800000000     0.0413045  
H42      H      0.410760000000     0.546800000000     0.603620000000     0.0335791  
H43      H      0.138380000000     0.800230000000     0.588760000000     0.0391229  
H44      H      0.465760000000     0.690960000000     0.562090000000     0.0328791  
H45      H      0.338370000000     0.577640000000     0.568570000000     0.034778   
H46      H      0.533290000000     0.618700000000     0.564280000000     0.0227696  
H47      H      0.248890000000     0.703320000000     0.516250000000     0.0439669  
H48      H      0.165010000000     0.850140000000     0.617300000000     0.0394902  
H49      H      0.393890000000     0.721230000000     0.608140000000     0.042635   
H50      H      0.255980000000     0.830970000000     0.605440000000     0.0391579  
H51      H      0.404090000000     0.510350000000     0.562440000000     0.0378859  
H52      H      0.210170000000     0.883320000000     0.508870000000     0.0363313  
H53      H      0.454210000000     0.647890000000     0.524400000000     0.0385875  
H54      H      0.378580000000     0.582770000000     0.527600000000     0.0381948  
H55      H      0.327860000000     0.784220000000     0.605130000000     0.0409158  
H56      H      0.292420000000     0.828750000000     0.526260000000     0.0392107  
H57      H      0.489790000000     0.623120000000     0.602630000000     0.0332304  
H58      H      0.776580000000     0.819370000000     0.461130000000     0.0402347  
H59      H      0.735620000000     0.621990000000     0.447520000000     0.03385    
H60      H      0.644340000000     0.692920000000     0.527400000000     0.031473   
H61      H      0.973080000000     0.847280000000     0.478070000000     0.0396335  
H62      H      0.646370000000     0.579320000000     0.452660000000     0.0339164  
H63      H      0.828500000000     0.833590000000     0.555350000000     0.0337438  
H64      H      0.894970000000     0.814190000000     0.450560000000     0.0346518  
H65      H      0.891930000000     0.911120000000     0.563960000000     0.0368241  
H66      H      0.704990000000     0.752370000000     0.455060000000     0.0434389  
H67      H      0.694860000000     0.537380000000     0.467900000000     0.0331404  
H68      H      0.857890000000     0.727970000000     0.537610000000     0.0453849  
H69      H      0.751980000000     0.603910000000     0.493310000000     0.0387365  
H70      H      0.946420000000     0.903170000000     0.461470000000     0.0383286  
H71      H      0.595220000000     0.622280000000     0.494780000000     0.0323071  
H72      H      0.825330000000     0.880940000000     0.520480000000     0.0359956  
H73      H      0.858030000000     0.867970000000     0.461120000000     0.0336859  
H74      H      0.785190000000     0.662920000000     0.533560000000     0.0424363  
H75      H      0.689890000000     0.650200000000     0.546660000000     0.0383572  
H76      H      0.920050000000     0.851300000000     0.566900000000     0.0423766  
H77      H      0.846930000000     0.160330000000     0.484920000000     0.0405243  
H78      H      0.697690000000     0.256030000000     0.520630000000     0.0338592  
H79      H      0.810750000000     0.362320000000     0.474430000000     0.0399126  
H80      H      0.974870000000     0.139470000000     0.596710000000     0.0376466  
H81      H      0.653950000000     0.304130000000     0.473660000000     0.0355679  
H82      H      0.967450000000     0.195440000000     0.488910000000     0.0346366  
H83      H      0.881280000000     0.150540000000     0.584360000000     0.0339556  
H84      H      0.026280000000     0.123700000000     0.496430000000     0.0409017  
H85      H      0.778020000000     0.216230000000     0.466510000000     0.0436164  
H86      H      0.627670000000     0.315690000000     0.518160000000     0.0409397  
H87      H      0.900280000000     0.265920000000     0.568470000000     0.0441498  
H88      H      0.717000000000     0.312360000000     0.545990000000     0.0397425  
H89      H      0.939790000000     0.078680000000     0.593090000000     0.0395336  
H90      H      0.723910000000     0.372090000000     0.445820000000     0.0283284  
H91      H      0.931440000000     0.134580000000     0.489860000000     0.0377501  
H92      H      0.880530000000     0.108700000000     0.545640000000     0.0381249  
H93      H      0.828610000000     0.319800000000     0.552060000000     0.041271   
H94      H      0.783780000000     0.374820000000     0.519040000000     0.043764   
H95      H      0.032250000000     0.168940000000     0.532600000000     0.0362795  
H96      H      0.433380000000     0.233270000000     0.591200000000     0.04043    
H97      H      0.245680000000     0.150790000000     0.632010000000     0.0347367  
H98      H      0.322140000000     0.082050000000     0.543170000000     0.0396278  
H99      H      0.413530000000     0.408710000000     0.544770000000     0.0363302  
H100     H      0.240790000000     0.059840000000     0.641310000000     0.0364381  
H101     H      0.431770000000     0.271680000000     0.497840000000     0.0328063  
H102     H      0.373890000000     0.348420000000     0.589660000000     0.032431   
H103     H      0.509750000000     0.335100000000     0.494180000000     0.0334285  
H104     H      0.384460000000     0.154790000000     0.609300000000     0.0439982  
H105     H      0.174340000000     0.079930000000     0.633460000000     0.0384186  
H106     H      0.300100000000     0.271590000000     0.524600000000     0.044504   
H107     H      0.208240000000     0.144120000000     0.590030000000     0.0390627  
H108     H      0.453260000000     0.410460000000     0.585880000000     0.0324644  
H109     H      0.290200000000     0.022270000000     0.590100000000     0.0299126  
H110     H      0.473690000000     0.272590000000     0.537940000000     0.0361894  
H111     H      0.437090000000     0.320830000000     0.595910000000     0.0359013  
H112     H      0.251450000000     0.192420000000     0.542360000000     0.0418674  
H113     H      0.254810000000     0.100240000000     0.535380000000     0.0476251  
H114     H      0.446600000000     0.363400000000     0.490740000000     0.0402305  
H115     H      0.183320000000     0.809790000000     0.972790000000     0.041303   
H116     H      0.400260000000     0.763710000000     0.992590000000     0.0345772  
H117     H      0.263420000000     0.679070000000     0.030870000000     0.0384716  
H118     H      0.188750000000     0.991910000000     0.989840000000     0.0361797  
H119     H      0.414270000000     0.681670000000     0.970380000000     0.0361897  
H120     H      0.181460000000     0.877680000000     0.069600000000     0.0337058  
H121     H      0.210240000000     0.915510000000     0.958380000000     0.0348733  
H122     H      0.107820000000     0.935820000000     0.072340000000     0.0402856  
H123     H      0.239270000000     0.738350000000     0.969050000000     0.0441549  
H124     H      0.456940000000     0.691630000000     0.009010000000     0.0406298  
H125     H      0.291390000000     0.880280000000     0.051810000000     0.0434336  
H126     H      0.396210000000     0.742690000000     0.039380000000     0.0360588  
H127     H      0.135130000000     0.973320000000     0.959410000000     0.0411987  
H128     H      0.310580000000     0.616720000000     0.000300000000     0.0334675  
H129     H      0.130300000000     0.861900000000     0.036210000000     0.0395639  
H130     H      0.146710000000     0.884520000000     0.970940000000     0.0392493  
H131     H      0.344620000000     0.806920000000     0.050550000000     0.0399288  
H132     H      0.317600000000     0.697600000000     0.061080000000     0.0417942  
H133     H      0.171600000000     0.967500000000     0.062380000000     0.036983   
H134     H      0.685070000000     0.724510000000     0.044340000000     0.0408323  
H135     H      0.885450000000     0.769680000000     0.062650000000     0.0340631  
H136     H      0.830070000000     0.816360000000     0.960190000000     0.0414162  
H137     H      0.639250000000     0.538400000000     0.031080000000     0.0371788  
H138     H      0.901010000000     0.857050000000     0.062720000000     0.0434153  
H139     H      0.665420000000     0.657490000000     0.962410000000     0.0321574  
H140     H      0.700020000000     0.596850000000     0.066110000000     0.032007   
H141     H      0.571160000000     0.623730000000     0.968580000000     0.0358696  
H142     H      0.755230000000     0.792430000000     0.041180000000     0.0457644  
H143     H      0.964890000000     0.836070000000     0.050330000000     0.0337311  
H144     H      0.790010000000     0.623690000000     0.992800000000     0.0438347  
H145     H      0.926510000000     0.760260000000     0.023150000000     0.0374552  
H146     H      0.605490000000     0.560930000000     0.070650000000     0.0327061  
H147     H      0.900890000000     0.870570000000     0.950190000000     0.0344721  
H148     H      0.630260000000     0.682460000000     0.000660000000     0.0361974  
H149     H      0.651800000000     0.644300000000     0.065620000000     0.0360618  
H150     H      0.861280000000     0.691510000000     0.991310000000     0.0410651  
H151     H      0.874550000000     0.767280000000     0.957990000000     0.038036   
H152     H      0.617800000000     0.574760000000     0.969930000000     0.0369075  
H153     H      0.670010000000     0.168460000000     0.966160000000     0.0428393  
H154     H      0.686500000000     0.366880000000     0.996230000000     0.0338303  
H155     H      0.559380000000     0.272210000000     0.037700000000     0.0392807  
H156     H      0.772730000000     0.068290000000     0.962300000000     0.0373366  
H157     H      0.635210000000     0.420410000000     0.033650000000     0.0372587  
H158     H      0.739650000000     0.123390000000     0.065810000000     0.0344032  
H159     H      0.771980000000     0.159230000000     0.954600000000     0.0332296  
H160     H      0.809540000000     0.059920000000     0.064870000000     0.040963   
H161     H      0.619800000000     0.243690000000     0.968470000000     0.039942   
H162     H      0.624890000000     0.435670000000     0.986690000000     0.0377366  
H163     H      0.765250000000     0.223420000000     0.057660000000     0.0402855  
H164     H      0.630230000000     0.348400000000     0.967650000000     0.037093   
H165     H      0.838610000000     0.094630000000     0.951580000000     0.040763   
H166     H      0.538460000000     0.352660000000     0.060180000000     0.0282924  
H167     H      0.805280000000     0.149870000000     0.053300000000     0.0382068  
H168     H      0.823910000000     0.170720000000     0.988100000000     0.0396282  
H169     H      0.711210000000     0.296140000000     0.062230000000     0.0437665  
H170     H      0.559330000000     0.292320000000     0.990750000000     0.0405114  
H171     H      0.754640000000     0.045210000000     0.034580000000     0.0367336  
H172     H      0.194340000000     0.211440000000     0.024250000000     0.0411826  
H173     H      0.298580000000     0.355150000000     0.958830000000     0.0330256  
H174     H      0.292390000000     0.379400000000     0.073260000000     0.0311634  
H175     H      0.002350000000     0.219510000000     0.983090000000     0.0352975  
H176     H      0.388110000000     0.384180000000     0.980240000000     0.0360445  
H177     H      0.089550000000     0.237870000000     0.078060000000     0.0344706  
H178     H      0.092880000000     0.242210000000     0.962120000000     0.0343793  
H179     H      0.026250000000     0.161420000000     0.076600000000     0.0405952  
H180     H      0.278520000000     0.263210000000     0.022640000000     0.0446726  
H181     H      0.361160000000     0.432330000000     0.952560000000     0.0341529  
H182     H      0.106580000000     0.345000000000     0.015980000000     0.0439128  
H183     H      0.270780000000     0.412450000000     0.973920000000     0.0370339  
H184     H      0.028330000000     0.167830000000     0.958820000000     0.0407758  
H185     H      0.383610000000     0.393310000000     0.048240000000     0.0403192  
H186     H      0.116240000000     0.185330000000     0.054750000000     0.0389151  
H187     H      0.117910000000     0.187850000000     0.984180000000     0.0398193  
H188     H      0.191020000000     0.396700000000     0.013390000000     0.0411006  
H189     H      0.268900000000     0.428490000000     0.044260000000     0.0358614  
H190     H      0.000210000000     0.215330000000     0.055020000000     0.0355206  
N1       N      0.627230000000     0.452450000000     0.624080000000    -0.181984   
N2       N      0.608900000000     0.461810000000     0.700160000000    -0.113321   
N3       N      0.506680000000     0.514560000000     0.832700000000    -0.113454   
N4       N      0.480150000000     0.524260000000     0.907170000000    -0.182004   
N5       N      0.511720000000     0.488370000000     0.427500000000    -0.18377    
N6       N      0.504210000000     0.489970000000     0.351760000000    -0.110461   
N7       N      0.471950000000     0.510650000000     0.198400000000    -0.113516   
N8       N      0.465990000000     0.511940000000     0.121690000000    -0.177704   
N9       N      0.172440000000     0.863090000000     0.559970000000    -0.169704   
N10      N      0.239210000000     0.782300000000     0.559860000000    -0.110146   
N11      N      0.398570000000     0.638030000000     0.568560000000    -0.112941   
N12      N      0.472380000000     0.563610000000     0.565530000000    -0.180173   
N13      N      0.650990000000     0.568810000000     0.510260000000    -0.230376   
N14      N      0.697810000000     0.663310000000     0.488960000000    -0.115618   
N15      N      0.865710000000     0.816030000000     0.504960000000    -0.112357   
N16      N      0.941870000000     0.892770000000     0.519220000000    -0.166985   
N17      N      0.677770000000     0.376710000000     0.494010000000    -0.180826   
N18      N      0.757220000000     0.304440000000     0.495130000000    -0.112787   
N19      N      0.923690000000     0.179610000000     0.537860000000    -0.113593   
N20      N      0.991860000000     0.100350000000     0.548300000000    -0.16745    
N21      N      0.209920000000     0.041310000000     0.588870000000    -0.173676   
N22      N      0.288260000000     0.120560000000     0.587600000000    -0.113203   
N23      N      0.397960000000     0.304510000000     0.544750000000    -0.116191   
N24      N      0.487570000000     0.374450000000     0.541210000000    -0.231136   
N25      N      0.389860000000     0.638310000000     0.016480000000    -0.180812   
N26      N      0.327510000000     0.722610000000     0.006380000000    -0.111325   
N27      N      0.203060000000     0.895820000000     0.014650000000    -0.113474   
N28      N      0.119430000000     0.962310000000     0.017000000000    -0.166818   
N29      N      0.922290000000     0.868170000000     0.006820000000    -0.170353   
N30      N      0.851080000000     0.789270000000     0.011730000000    -0.109854   
N31      N      0.689420000000     0.630770000000     0.014280000000    -0.116632   
N32      N      0.581720000000     0.591950000000     0.020580000000    -0.22734    
N33      N      0.557790000000     0.398300000000     0.014060000000    -0.180182   
N34      N      0.627570000000     0.317820000000     0.021610000000    -0.112061   
N35      N      0.748630000000     0.142750000000     0.009550000000    -0.1133     
N36      N      0.825750000000     0.069580000000     0.007250000000    -0.166672   
N37      N      0.362710000000     0.447580000000     0.009160000000    -0.227588   
N38      N      0.291290000000     0.362170000000     0.016520000000    -0.116586   
N39      N      0.093900000000     0.245580000000     0.020220000000    -0.114298   
N40      N      0.022830000000     0.160130000000     0.017610000000    -0.169316   
O1       O      0.050000000000     0.992380000000     0.984350000000    -0.395979   
O2       O      0.899950000000     0.040900000000     0.979430000000    -0.397448   
O3       O      0.003150000000     0.088360000000     0.984810000000    -0.403094   
O4       O      0.945600000000     0.943530000000     0.978990000000    -0.399287   
O5       O      0.941390000000     0.940000000000     0.039740000000    -0.401488   
O6       O      0.997200000000     0.085440000000     0.045480000000    -0.401151   
O7       O      0.893390000000     0.036260000000     0.040000000000    -0.395077   
O8       O      0.044160000000     0.988650000000     0.045000000000    -0.396334   
O9       O      0.129160000000     0.919610000000     0.525920000000    -0.400776   
O10      O      0.046020000000     0.044230000000     0.522170000000    -0.400321   
O11      O      0.152920000000     0.019480000000     0.541960000000    -0.399474   
O12      O      0.020300000000     0.939080000000     0.506440000000    -0.396883   
O13      O      0.994890000000     0.927540000000     0.564350000000    -0.40405    
O14      O      0.125280000000     0.009180000000     0.599520000000    -0.403059   
O15      O      0.017930000000     0.030980000000     0.579280000000    -0.396396   
O16      O      0.103410000000     0.905970000000     0.583510000000    -0.393931   
O17      O      0.510940000000     0.546930000000     0.963730000000    -0.481427   
O18      O      0.504350000000     0.536970000000     0.067740000000    -0.472869   
O19      O      0.552160000000     0.484360000000     0.011640000000    -0.471302   
O20      O      0.470140000000     0.601650000000     0.015320000000    -0.469913   
O21      O      0.396210000000     0.552830000000     0.012960000000    -0.470226   
O22      O      0.477950000000     0.436610000000     0.016580000000    -0.475151   
O23      O      0.427630000000     0.492280000000     0.064430000000    -0.483816   
O24      O      0.440830000000     0.493620000000     0.959770000000    -0.481203   
O25      O      0.566760000000     0.511610000000     0.475100000000    -0.495492   
O26      O      0.632200000000     0.491370000000     0.567670000000    -0.45939    
O27      O      0.652910000000     0.458270000000     0.502660000000    -0.468908   
O28      O      0.557650000000     0.544270000000     0.548500000000    -0.491822   
O29      O      0.491680000000     0.485460000000     0.545200000000    -0.476533   
O30      O      0.594710000000     0.395210000000     0.513880000000    -0.47979    
O31      O      0.568020000000     0.433170000000     0.577990000000    -0.478541   
O32      O      0.515050000000     0.442370000000     0.480460000000    -0.47973    
S1       S      0.689530000000     0.536050000000     0.624000000000    -0.0093643  
S2       S      0.418030000000     0.445770000000     0.433720000000    -0.0221851  
S3       S      0.266710000000     0.916960000000     0.555640000000    -0.0206605  
S4       S      0.582350000000     0.602330000000     0.557030000000     0.0766507  
S5       S      0.749560000000     0.445780000000     0.470140000000    -0.0141425  
S6       S      0.258540000000     0.987690000000     0.534190000000    -0.00707958 
S7       S      0.317930000000     0.596390000000     0.059040000000    -0.0175652  
S8       S      0.966660000000     0.820060000000     0.957060000000    -0.0268981  
S9       S      0.475040000000     0.333650000000     0.019190000000    -0.0164917  
S10      S      0.368090000000     0.469050000000     0.078200000000     0.087464   


