data_structure

_audit_creation_method RASPA-1.0
_audit_creation_date 2023-6-4
_audit_author_name 'Poobodin Mano'

_cell_length_a    26.0325
_cell_length_b    26.77
_cell_length_c    37.8232
_cell_angle_alpha 89.9988
_cell_angle_beta  89.9988
_cell_angle_gamma 93.6791
_cell_volume      26304.3

_symmetry_cell_setting          triclinic
_symmetry_space_group_name_Hall 'P 1'
_symmetry_space_group_name_H-M  'P 1'
_symmetry_Int_Tables_number     1

_symmetry_equiv_pos_as_xyz 'x,y,z'

loop_
_atom_site_label
_atom_site_type_symbol
_atom_site_fract_x
_atom_site_fract_y
_atom_site_fract_z
_atom_site_charge
C1       C      0.056090000000     0.910010000000     0.010570000000     0.394879   
C2       C      0.947580000000     0.073290000000     0.006600000000     0.39463    
C3       C      0.088070000000     0.047400000000     0.997120000000     0.402166   
C4       C      0.914880000000     0.936670000000     0.019740000000     0.403531   
C5       C      0.089140000000     0.941930000000     0.516590000000     0.394118   
C6       C      0.923080000000     0.050180000000     0.511620000000     0.394426   
C7       C      0.062450000000     0.080030000000     0.527560000000     0.404359   
C8       C      0.948730000000     0.913150000000     0.500690000000     0.402752   
C9       C      0.510210000000     0.505440000000     0.941580000000     0.472112   
C10      C      0.495160000000     0.478600000000     0.074360000000     0.471262   
C11      C      0.574260000000     0.432210000000     0.006470000000     0.460928   
C12      C      0.430670000000     0.553750000000     0.008840000000     0.462604   
C13      C      0.490560000000     0.491860000000     0.441580000000     0.47468    
C14      C      0.523040000000     0.502150000000     0.574160000000     0.473529   
C15      C      0.567480000000     0.426000000000     0.503070000000     0.460584   
C16      C      0.444330000000     0.567060000000     0.512010000000     0.460824   
C17      C      0.500450000000     0.479900000000     0.669810000000    -0.0315346  
C18      C      0.559770000000     0.548640000000     0.853340000000    -0.0316951  
C19      C      0.476030000000     0.483580000000     0.882560000000    -0.00231311 
C20      C      0.541460000000     0.557550000000     0.891200000000    -0.00246702 
C21      C      0.567010000000     0.496560000000     0.781220000000    -0.0566094  
C22      C      0.505330000000     0.547440000000     0.734560000000    -0.0565757  
C23      C      0.528520000000     0.525970000000     0.794650000000     0.0608038  
C24      C      0.497710000000     0.478180000000     0.845360000000    -0.0315586  
C25      C      0.542630000000     0.516650000000     0.721110000000     0.0607785  
C26      C      0.561010000000     0.551940000000     0.662870000000    -0.0314833  
C27      C      0.573820000000     0.491990000000     0.744730000000    -0.0544425  
C28      C      0.573420000000     0.537350000000     0.624760000000    -0.00295216 
C29      C      0.510170000000     0.461750000000     0.632300000000    -0.00247407 
C30      C      0.498420000000     0.551890000000     0.771050000000    -0.0543321  
C31      C      0.443720000000     0.446180000000     0.353480000000    -0.0318522  
C32      C      0.518280000000     0.500100000000     0.170030000000    -0.0315991  
C33      C      0.455300000000     0.432350000000     0.124960000000    -0.00306385 
C34      C      0.536600000000     0.489120000000     0.132660000000    -0.0024235  
C35      C      0.501400000000     0.430270000000     0.245120000000    -0.0543639  
C36      C      0.443060000000     0.506450000000     0.270970000000    -0.0544338  
C37      C      0.477670000000     0.461590000000     0.221300000000     0.0608204  
C38      C      0.440860000000     0.445600000000     0.162960000000    -0.0315361  
C39      C      0.467940000000     0.476010000000     0.294780000000     0.0607994  
C40      C      0.517360000000     0.505230000000     0.345500000000    -0.0316044  
C41      C      0.496690000000     0.437280000000     0.281570000000    -0.0565672  
C42      C      0.512170000000     0.526370000000     0.382710000000    -0.00220222 
C43      C      0.435120000000     0.464110000000     0.391380000000    -0.0022727  
C44      C      0.447780000000     0.499450000000     0.234520000000    -0.0566272  
C45      C      0.322190000000     0.634260000000     0.522040000000    -0.031113   
C46      C      0.169360000000     0.838530000000     0.544270000000    -0.0301546  
C47      C      0.168350000000     0.913620000000     0.488410000000    -0.00816885 
C48      C      0.143890000000     0.887700000000     0.551160000000    -0.00742292 
C49      C      0.236120000000     0.763470000000     0.497160000000    -0.0558062  
C50      C      0.320310000000     0.767250000000     0.543170000000    -0.0540266  
C51      C      0.245880000000     0.806040000000     0.518760000000     0.0598718  
C52      C      0.194130000000     0.863710000000     0.484910000000    -0.0300602  
C53      C      0.311220000000     0.725090000000     0.521520000000     0.0597802  
C54      C      0.388540000000     0.691380000000     0.497700000000    -0.0313997  
C55      C      0.269210000000     0.724020000000     0.497870000000    -0.0556744  
C56      C      0.431430000000     0.657320000000     0.507780000000    -0.00341742 
C57      C      0.361090000000     0.595970000000     0.532460000000    -0.00465306 
C58      C      0.288290000000     0.807240000000     0.541680000000    -0.0541262  
C59      C      0.870240000000     0.792320000000     0.514300000000    -0.029664   
C60      C      0.648860000000     0.637820000000     0.454950000000    -0.0236061  
C61      C      0.648750000000     0.569110000000     0.513520000000    -0.0201005  
C62      C      0.611010000000     0.592140000000     0.457980000000    -0.016969   
C63      C      0.782780000000     0.667860000000     0.463630000000    -0.0548088  
C64      C      0.753550000000     0.761510000000     0.485940000000    -0.0547594  
C65      C      0.731810000000     0.673690000000     0.473840000000     0.0617544  
C66      C      0.686360000000     0.615070000000     0.512240000000    -0.0218754  
C67      C      0.804510000000     0.755610000000     0.476180000000     0.0625481  
C68      C      0.875750000000     0.808370000000     0.451710000000    -0.0295682  
C69      C      0.819250000000     0.708400000000     0.465150000000    -0.0572414  
C70      C      0.902470000000     0.860310000000     0.456870000000    -0.006207   
C71      C      0.894230000000     0.843570000000     0.524330000000    -0.00540116 
C72      C      0.717570000000     0.720940000000     0.485310000000    -0.0566787  
C73      C      0.614140000000     0.296490000000     0.501370000000    -0.0314575  
C74      C      0.835780000000     0.147980000000     0.538010000000    -0.0304495  
C75      C      0.852880000000     0.084760000000     0.476890000000    -0.00817698 
C76      C      0.857630000000     0.096450000000     0.543300000000    -0.00732798 
C77      C      0.782980000000     0.231880000000     0.483760000000    -0.0554339  
C78      C      0.692610000000     0.229350000000     0.523880000000    -0.0553408  
C79      C      0.770240000000     0.189750000000     0.505240000000     0.0595757  
C80      C      0.830320000000     0.136210000000     0.474570000000    -0.0300329  
C81      C      0.703440000000     0.269680000000     0.500410000000     0.0594083  
C82      C      0.685450000000     0.355460000000     0.515470000000    -0.031744   
C83      C      0.749430000000     0.270610000000     0.480920000000    -0.0535346  
C84      C      0.656830000000     0.399940000000     0.501620000000    -0.00318655 
C85      C      0.581180000000     0.338040000000     0.487870000000    -0.00426387 
C86      C      0.725100000000     0.189600000000     0.525610000000    -0.0536143  
C87      C      0.149580000000     0.186170000000     0.506540000000    -0.0299161  
C88      C      0.374820000000     0.343460000000     0.557300000000    -0.0213555  
C89      C      0.385630000000     0.394710000000     0.490500000000    -0.0211351  
C90      C      0.423290000000     0.375090000000     0.546970000000    -0.021843   
C91      C      0.303190000000     0.240720000000     0.525220000000    -0.0549021  
C92      C      0.215040000000     0.280830000000     0.552940000000    -0.0549174  
C93      C      0.304080000000     0.291560000000     0.533840000000     0.0619959  
C94      C      0.337160000000     0.362300000000     0.499650000000    -0.0218127  
C95      C      0.213310000000     0.230720000000     0.542470000000     0.0621092  
C96      C      0.162260000000     0.161210000000     0.568020000000    -0.030347   
C97      C      0.258250000000     0.210200000000     0.529780000000    -0.0568908  
C98      C      0.107230000000     0.137790000000     0.570110000000    -0.00590382 
C99      C      0.094500000000     0.163610000000     0.506770000000    -0.00605497 
C100     C      0.260170000000     0.311100000000     0.549000000000    -0.0569266  
C101     C      0.160720000000     0.829790000000     0.037140000000    -0.0302856  
C102     C      0.300330000000     0.605060000000     0.999250000000    -0.0309776  
C103     C      0.405360000000     0.640090000000     0.017890000000    -0.00339314 
C104     C      0.345090000000     0.574360000000     0.987570000000    -0.00418871 
C105     C      0.277000000000     0.735890000000     0.985480000000    -0.0537257  
C106     C      0.193560000000     0.713340000000     0.030380000000    -0.0539629  
C107     C      0.275570000000     0.691550000000     0.005340000000     0.0598147  
C108     C      0.357210000000     0.666710000000     0.028640000000    -0.031434   
C109     C      0.194070000000     0.756760000000     0.009550000000     0.0598829  
C110     C      0.133280000000     0.807150000000     0.977710000000    -0.0300458  
C111     C      0.237240000000     0.768640000000     0.987900000000    -0.0559966  
C112     C      0.082200000000     0.832070000000     0.982230000000    -0.00791035 
C113     C      0.110370000000     0.854700000000     0.044720000000    -0.00729476 
C114     C      0.234130000000     0.681430000000     0.028830000000    -0.0560509  
C115     C      0.823550000000     0.850740000000     0.066210000000    -0.0301536  
C116     C      0.661750000000     0.637620000000     0.002910000000    -0.0230573  
C117     C      0.595740000000     0.597610000000     0.058490000000    -0.0169571  
C118     C      0.632740000000     0.586390000000     0.000610000000    -0.0180463  
C119     C      0.677050000000     0.743870000000     0.034510000000    -0.0567635  
C120     C      0.782330000000     0.745870000000     0.049280000000    -0.0568607  
C121     C      0.700080000000     0.699020000000     0.042570000000     0.0616985  
C122     C      0.624940000000     0.648580000000     0.062310000000    -0.0234705  
C123     C      0.759010000000     0.790680000000     0.041630000000     0.0619722  
C124     C      0.815360000000     0.838580000000     0.002470000000    -0.0302142  
C125     C      0.706270000000     0.789240000000     0.034560000000    -0.054881   
C126     C      0.837310000000     0.891630000000     0.995130000000    -0.00600651 
C127     C      0.847020000000     0.904040000000     0.061090000000    -0.00664785 
C128     C      0.752770000000     0.700510000000     0.050160000000    -0.0547983  
C129     C      0.701920000000     0.377570000000     0.992620000000    -0.0316035  
C130     C      0.860620000000     0.167760000000     0.971960000000    -0.030101   
C131     C      0.904720000000     0.138930000000     0.039240000000    -0.00712715 
C132     C      0.911630000000     0.141860000000     0.972310000000    -0.00806448 
C133     C      0.817410000000     0.272870000000     0.026390000000    -0.0539486  
C134     C      0.727720000000     0.254380000000     0.986690000000    -0.054973   
C135     C      0.812850000000     0.230090000000     0.004870000000     0.0596417  
C136     C      0.853180000000     0.163180000000     0.035660000000    -0.0303029  
C137     C      0.731940000000     0.296550000000     0.009230000000     0.0593533  
C138     C      0.638770000000     0.310390000000     0.006230000000    -0.0315259  
C139     C      0.777350000000     0.305150000000     0.028910000000    -0.0537771  
C140     C      0.599360000000     0.346740000000     0.018780000000    -0.00385132 
C141     C      0.666870000000     0.417730000000     0.005640000000    -0.00296889 
C142     C      0.766980000000     0.220860000000     0.985310000000    -0.0552384  
C143     C      0.359640000000     0.350460000000     0.955700000000    -0.0232037  
C144     C      0.210160000000     0.126850000000     0.013350000000    -0.0298042  
C145     C      0.143220000000     0.094010000000     0.954610000000    -0.0061608  
C146     C      0.158570000000     0.100100000000     0.022460000000    -0.00555385 
C147     C      0.295320000000     0.182050000000     0.967130000000    -0.0572154  
C148     C      0.275260000000     0.280340000000     0.984800000000    -0.0567016  
C149     C      0.245210000000     0.193790000000     0.976560000000     0.062412   
C150     C      0.195390000000     0.122900000000     0.950580000000    -0.0295376  
C151     C      0.325450000000     0.268940000000     0.975180000000     0.0617467  
C152     C      0.380440000000     0.317990000000     0.014500000000    -0.0214124  
C153     C      0.335030000000     0.219650000000     0.966160000000    -0.0547805  
C154     C      0.426680000000     0.355770000000     0.016260000000    -0.0218346  
C155     C      0.405520000000     0.388690000000     0.958860000000    -0.0181129  
C156     C      0.235550000000     0.243070000000     0.985080000000    -0.0546311  
Cu1      Cu     0.996050000000     0.986370000000     0.976290000000     0.838923   
Cu2      Cu     0.007530000000     0.996840000000     0.040700000000     0.841301   
Cu3      Cu     0.012610000000     0.002730000000     0.482080000000     0.839453   
Cu4      Cu     0.999820000000     0.989730000000     0.546150000000     0.84099    
Cu5      Cu     0.539000000000     0.532160000000     0.013450000000     1.17683    
Cu6      Cu     0.465210000000     0.453290000000     0.002770000000     1.17849    
Cu7      Cu     0.547350000000     0.532170000000     0.502700000000     1.18294    
Cu8      Cu     0.465110000000     0.461270000000     0.513340000000     1.17402    
H1       H      0.468550000000     0.574490000000     0.780990000000     0.0440406  
H2       H      0.489580000000     0.446660000000     0.686540000000     0.0339688  
H3       H      0.595610000000     0.572430000000     0.674400000000     0.0340389  
H4       H      0.439550000000     0.502890000000     0.880820000000     0.0349685  
H5       H      0.537460000000     0.431490000000     0.633480000000     0.0345421  
H6       H      0.574810000000     0.585110000000     0.842080000000     0.0340751  
H7       H      0.466400000000     0.461720000000     0.828070000000     0.0339917  
H8       H      0.575570000000     0.568630000000     0.907810000000     0.0371817  
H9       H      0.579150000000     0.572080000000     0.608720000000     0.0387538  
H10      H      0.480560000000     0.566730000000     0.716910000000     0.0403906  
H11      H      0.473190000000     0.445190000000     0.621510000000     0.0372988  
H12      H      0.590670000000     0.476010000000     0.798880000000     0.0400112  
H13      H      0.467470000000     0.504440000000     0.669510000000     0.0374997  
H14      H      0.466410000000     0.445440000000     0.893280000000     0.0366971  
H15      H      0.610320000000     0.518610000000     0.624660000000     0.0348364  
H16      H      0.591880000000     0.523080000000     0.853950000000     0.0364106  
H17      H      0.529090000000     0.451800000000     0.846040000000     0.0369423  
H18      H      0.602510000000     0.468030000000     0.734770000000     0.0436529  
H19      H      0.529040000000     0.577670000000     0.662640000000     0.0372456  
H20      H      0.516130000000     0.589460000000     0.891060000000     0.0366748  
H21      H      0.429390000000     0.524420000000     0.216710000000     0.0400734  
H22      H      0.405900000000     0.432400000000     0.342260000000     0.0339644  
H23      H      0.534830000000     0.535450000000     0.328240000000     0.0339723  
H24      H      0.472010000000     0.395150000000     0.125030000000     0.0346636  
H25      H      0.403100000000     0.489680000000     0.391300000000     0.0354234  
H26      H      0.552770000000     0.508730000000     0.186900000000     0.0340722  
H27      H      0.417640000000     0.413260000000     0.174510000000     0.0340755  
H28      H      0.556130000000     0.523940000000     0.121780000000     0.0365786  
H29      H      0.551490000000     0.535420000000     0.393330000000     0.0365263  
H30      H      0.421120000000     0.536580000000     0.280730000000     0.0437199  
H31      H      0.422810000000     0.431130000000     0.407920000000     0.0362608  
H32      H      0.524780000000     0.401220000000     0.235350000000     0.0439393  
H33      H      0.469200000000     0.414320000000     0.354060000000     0.0366956  
H34      H      0.419570000000     0.428960000000     0.108780000000     0.0386229  
H35      H      0.492560000000     0.561990000000     0.381020000000     0.0345655  
H36      H      0.495250000000     0.533770000000     0.169480000000     0.0368818  
H37      H      0.416600000000     0.478370000000     0.162500000000     0.0369341  
H38      H      0.516630000000     0.413480000000     0.299370000000     0.0402708  
H39      H      0.543890000000     0.474200000000     0.346150000000     0.0373057  
H40      H      0.565690000000     0.460530000000     0.134150000000     0.0355918  
H41      H      0.296220000000     0.839250000000     0.558790000000     0.0438698  
H42      H      0.289060000000     0.630550000000     0.540650000000     0.0340763  
H43      H      0.405170000000     0.730750000000     0.497540000000     0.0340607  
H44      H      0.198780000000     0.943820000000     0.493490000000     0.0370261  
H45      H      0.367100000000     0.598000000000     0.561540000000     0.0367295  
H46      H      0.183250000000     0.824430000000     0.570030000000     0.0338479  
H47      H      0.227000000000     0.868990000000     0.466190000000     0.0339294  
H48      H      0.109260000000     0.879340000000     0.567880000000     0.0400697  
H49      H      0.460480000000     0.658720000000     0.486160000000     0.0384893  
H50      H      0.352640000000     0.769160000000     0.561250000000     0.0439665  
H51      H      0.343970000000     0.557780000000     0.526470000000     0.0399111  
H52      H      0.203290000000     0.760620000000     0.479610000000     0.0397744  
H53      H      0.307670000000     0.625170000000     0.494960000000     0.0357258  
H54      H      0.150040000000     0.922140000000     0.462730000000     0.0402883  
H55      H      0.451000000000     0.672520000000     0.531980000000     0.0382281  
H56      H      0.140500000000     0.810010000000     0.533450000000     0.0380087  
H57      H      0.165670000000     0.835330000000     0.473540000000     0.0363051  
H58      H      0.261440000000     0.692650000000     0.480230000000     0.0396116  
H59      H      0.374330000000     0.682190000000     0.470540000000     0.0374861  
H60      H      0.171050000000     0.913080000000     0.566510000000     0.0378624  
H61      H      0.679090000000     0.726330000000     0.494710000000     0.0407494  
H62      H      0.844520000000     0.778800000000     0.536330000000     0.0336154  
H63      H      0.853700000000     0.808090000000     0.426480000000     0.0338187  
H64      H      0.666100000000     0.536600000000     0.500940000000     0.0372336  
H65      H      0.863790000000     0.866260000000     0.535540000000     0.0401472  
H66      H      0.658570000000     0.644000000000     0.426570000000     0.0321111  
H67      H      0.722950000000     0.605610000000     0.525090000000     0.0315087  
H68      H      0.574460000000     0.601320000000     0.445120000000     0.0336795  
H69      H      0.936310000000     0.864280000000     0.438890000000     0.0390472  
H70      H      0.742230000000     0.797400000000     0.495370000000     0.0446712  
H71      H      0.923000000000     0.838930000000     0.545650000000     0.0378963  
H72      H      0.794500000000     0.631490000000     0.455530000000     0.0433769  
H73      H      0.900710000000     0.765250000000     0.511140000000     0.0359076  
H74      H      0.640340000000     0.559660000000     0.541550000000     0.0343856  
H75      H      0.875690000000     0.888840000000     0.448500000000     0.0389123  
H76      H      0.629060000000     0.670710000000     0.464700000000     0.0357762  
H77      H      0.669890000000     0.645790000000     0.527580000000     0.0368715  
H78      H      0.858860000000     0.702660000000     0.458500000000     0.0401128  
H79      H      0.905310000000     0.780240000000     0.449530000000     0.03444    
H80      H      0.626260000000     0.559460000000     0.444220000000     0.0355279  
H81      H      0.714910000000     0.158230000000     0.542880000000     0.0429168  
H82      H      0.602430000000     0.261300000000     0.487010000000     0.0342354  
H83      H      0.727480000000     0.364660000000     0.512180000000     0.0331299  
H84      H      0.820650000000     0.055490000000     0.475500000000     0.0370793  
H85      H      0.581760000000     0.337620000000     0.458470000000     0.0356549  
H86      H      0.814210000000     0.157070000000     0.562330000000     0.0332923  
H87      H      0.804340000000     0.136370000000     0.451220000000     0.0342222  
H88      H      0.886000000000     0.099250000000     0.565310000000     0.0394888  
H89      H      0.666520000000     0.432900000000     0.518840000000     0.0360671  
H90      H      0.658580000000     0.227470000000     0.540310000000     0.0396916  
H91      H      0.540640000000     0.329220000000     0.496200000000     0.0382785  
H92      H      0.818010000000     0.234720000000     0.468360000000     0.0398597  
H93      H      0.605950000000     0.290670000000     0.530020000000     0.0360072  
H94      H      0.877730000000     0.079800000000     0.453420000000     0.0407279  
H95      H      0.671020000000     0.409490000000     0.474570000000     0.0365137  
H96      H      0.867870000000     0.177170000000     0.534620000000     0.0384168  
H97      H      0.862630000000     0.164920000000     0.470440000000     0.0369098  
H98      H      0.759240000000     0.301610000000     0.463260000000     0.0427732  
H99      H      0.677660000000     0.349970000000     0.544220000000     0.037809   
H100     H      0.825710000000     0.069200000000     0.551330000000     0.0381457  
H101     H      0.260160000000     0.350100000000     0.556510000000     0.0404369  
H102     H      0.151900000000     0.218570000000     0.488010000000     0.0341325  
H103     H      0.173820000000     0.175320000000     0.594730000000     0.0339211  
H104     H      0.413210000000     0.372580000000     0.475600000000     0.0365008  
H105     H      0.068450000000     0.193770000000     0.512990000000     0.0355282  
H106     H      0.386030000000     0.312300000000     0.574570000000     0.0312767  
H107     H      0.321430000000     0.344720000000     0.474940000000     0.0318737  
H108     H      0.440810000000     0.391330000000     0.571390000000     0.0355007  
H109     H      0.106710000000     0.104730000000     0.587940000000     0.0399567  
H110     H      0.180790000000     0.296810000000     0.563050000000     0.0437854  
H111     H      0.084480000000     0.149360000000     0.479880000000     0.0405447  
H112     H      0.336930000000     0.225170000000     0.513970000000     0.0437181  
H113     H      0.175240000000     0.157590000000     0.496550000000     0.038775   
H114     H      0.374130000000     0.425930000000     0.473550000000     0.0350708  
H115     H      0.082150000000     0.165550000000     0.581830000000     0.0367548  
H116     H      0.349030000000     0.367110000000     0.572590000000     0.0357483  
H117     H      0.308170000000     0.387020000000     0.510480000000     0.0355778  
H118     H      0.257940000000     0.171260000000     0.522030000000     0.0407608  
H119     H      0.188700000000     0.132070000000     0.560100000000     0.0381472  
H120     H      0.451490000000     0.351220000000     0.534290000000     0.0381275  
H121     H      0.232540000000     0.648660000000     0.045600000000     0.0400365  
H122     H      0.175480000000     0.815460000000     0.062570000000     0.0336002  
H123     H      0.127290000000     0.775610000000     0.958680000000     0.034313   
H124     H      0.423970000000     0.660400000000     0.995150000000     0.0379914  
H125     H      0.084210000000     0.827930000000     0.059730000000     0.0377922  
H126     H      0.268620000000     0.599370000000     0.979650000000     0.03448    
H127     H      0.368230000000     0.707400000000     0.031370000000     0.0337015  
H128     H      0.332980000000     0.533940000000     0.990320000000     0.0403638  
H129     H      0.072260000000     0.849730000000     0.956740000000     0.0405356  
H130     H      0.161490000000     0.704260000000     0.047970000000     0.0434342  
H131     H      0.119280000000     0.887850000000     0.061890000000     0.039756   
H132     H      0.309190000000     0.745090000000     0.968010000000     0.0436304  
H133     H      0.190020000000     0.858030000000     0.026490000000     0.037955   
H134     H      0.433170000000     0.642470000000     0.040260000000     0.0378026  
H135     H      0.051450000000     0.802440000000     0.988020000000     0.0367219  
H136     H      0.286030000000     0.590560000000     0.025270000000     0.0362345  
H137     H      0.343040000000     0.652610000000     0.054820000000     0.0373058  
H138     H      0.240150000000     0.802720000000     0.972500000000     0.040247   
H139     H      0.162010000000     0.835160000000     0.966230000000     0.0368778  
H140     H      0.352570000000     0.581520000000     0.959010000000     0.0362222  
H141     H      0.771200000000     0.666190000000     0.055580000000     0.0436294  
H142     H      0.802050000000     0.848900000000     0.091660000000     0.0340108  
H143     H      0.788090000000     0.827350000000     0.980760000000     0.0338769  
H144     H      0.618350000000     0.567740000000     0.070080000000     0.0359909  
H145     H      0.816080000000     0.930460000000     0.064250000000     0.0362882  
H146     H      0.698780000000     0.635990000000     0.988380000000     0.0319496  
H147     H      0.635640000000     0.654380000000     0.090550000000     0.0320948  
H148     H      0.623530000000     0.578060000000     0.972520000000     0.0337041  
H149     H      0.859140000000     0.891550000000     0.969880000000     0.0406011  
H150     H      0.823380000000     0.745650000000     0.053620000000     0.0406332  
H151     H      0.875950000000     0.912350000000     0.082240000000     0.0406759  
H152     H      0.636890000000     0.743840000000     0.027190000000     0.0405016  
H153     H      0.855300000000     0.824910000000     0.067780000000     0.0375233  
H154     H      0.558780000000     0.598650000000     0.073040000000     0.0328422  
H155     H      0.804860000000     0.916260000000     0.991650000000     0.0365756  
H156     H      0.638470000000     0.665800000000     0.989770000000     0.0370931  
H157     H      0.598430000000     0.677640000000     0.054580000000     0.0357343  
H158     H      0.688230000000     0.823260000000     0.027660000000     0.043723   
H159     H      0.847020000000     0.812470000000     0.002440000000     0.0386847  
H160     H      0.657030000000     0.556840000000     0.010800000000     0.0367967  
H161     H      0.761160000000     0.188180000000     0.968670000000     0.0395684  
H162     H      0.742560000000     0.392290000000     0.996190000000     0.0334449  
H163     H      0.631570000000     0.274400000000     0.020680000000     0.0336876  
H164     H      0.935030000000     0.168400000000     0.046330000000     0.038275   
H165     H      0.679590000000     0.430050000000     0.032510000000     0.0371873  
H166     H      0.860530000000     0.193100000000     0.948650000000     0.0337789  
H167     H      0.846800000000     0.184570000000     0.060340000000     0.0335921  
H168     H      0.912440000000     0.116440000000     0.949100000000     0.0405285  
H169     H      0.560670000000     0.332950000000     0.009120000000     0.0370774  
H170     H      0.693890000000     0.246350000000     0.970600000000     0.0393089  
H171     H      0.671800000000     0.450830000000     0.987870000000     0.0363904  
H172     H      0.852010000000     0.280750000000     0.041840000000     0.043299   
H173     H      0.695590000000     0.370590000000     0.963860000000     0.0378468  
H174     H      0.901580000000     0.111590000000     0.061400000000     0.0397555  
H175     H      0.597930000000     0.345840000000     0.048160000000     0.0353507  
H176     H      0.828590000000     0.138460000000     0.968940000000     0.0366361  
H177     H      0.821200000000     0.133670000000     0.033160000000     0.0386593  
H178     H      0.781750000000     0.337270000000     0.046310000000     0.0431525  
H179     H      0.632630000000     0.303210000000     0.977490000000     0.0359637  
H180     H      0.943730000000     0.170930000000     0.968990000000     0.0371747  
H181     H      0.197330000000     0.252210000000     0.993130000000     0.0448123  
H182     H      0.354890000000     0.339520000000     0.927450000000     0.0320012  
H183     H      0.390120000000     0.283580000000     0.028900000000     0.0313704  
H184     H      0.112670000000     0.118390000000     0.945720000000     0.039473   
H185     H      0.440250000000     0.373970000000     0.946450000000     0.0358582  
H186     H      0.222090000000     0.151700000000     0.035930000000     0.0337399  
H187     H      0.195160000000     0.145100000000     0.925690000000     0.0339049  
H188     H      0.164760000000     0.070960000000     0.042730000000     0.0376448  
H189     H      0.434210000000     0.365790000000     0.044300000000     0.0342816  
H190     H      0.266920000000     0.317650000000     0.993050000000     0.0407108  
H191     H      0.395960000000     0.423210000000     0.944690000000     0.0339563  
H192     H      0.303880000000     0.143890000000     0.961330000000     0.040115   
H193     H      0.324640000000     0.368900000000     0.964260000000     0.0357289  
H194     H      0.141730000000     0.061240000000     0.936460000000     0.0386475  
H195     H      0.461300000000     0.338900000000     0.005410000000     0.0377159  
H196     H      0.239960000000     0.099150000000     0.009960000000     0.0355498  
H197     H      0.226120000000     0.095980000000     0.948280000000     0.0343528  
H198     H      0.373650000000     0.210210000000     0.959410000000     0.04336    
H199     H      0.347200000000     0.334010000000     0.028020000000     0.0365863  
H200     H      0.133600000000     0.127490000000     0.034780000000     0.0404137  
N1       N      0.532750000000     0.502540000000     0.609750000000    -0.18192    
N2       N      0.547190000000     0.506720000000     0.683740000000    -0.113419   
N3       N      0.516580000000     0.527490000000     0.831910000000    -0.113218   
N4       N      0.512110000000     0.513140000000     0.905790000000    -0.181609   
N5       N      0.481580000000     0.491400000000     0.405900000000    -0.182352   
N6       N      0.466400000000     0.487760000000     0.332010000000    -0.113313   
N7       N      0.487800000000     0.456340000000     0.183990000000    -0.113366   
N8       N      0.493660000000     0.469590000000     0.109990000000    -0.181852   
N9       N      0.411660000000     0.605230000000     0.514910000000    -0.177992   
N10      N      0.346610000000     0.685360000000     0.523570000000    -0.112774   
N11      N      0.212570000000     0.847550000000     0.519640000000    -0.113336   
N12      N      0.130920000000     0.913040000000     0.517880000000    -0.165869   
N13      N      0.918230000000     0.870900000000     0.493930000000    -0.16835    
N14      N      0.841080000000     0.797330000000     0.481580000000    -0.113176   
N15      N      0.696280000000     0.630220000000     0.475220000000    -0.116503   
N16      N      0.601310000000     0.580650000000     0.495360000000    -0.230148   
N17      N      0.600600000000     0.388290000000     0.499980000000    -0.178994   
N18      N      0.669240000000     0.310140000000     0.495420000000    -0.112536   
N19      N      0.801500000000     0.146560000000     0.507060000000    -0.112997   
N20      N      0.880890000000     0.078460000000     0.510430000000    -0.166028   
N21      N      0.088530000000     0.124760000000     0.534310000000    -0.169497   
N22      N      0.164360000000     0.202710000000     0.542480000000    -0.114301   
N23      N      0.349170000000     0.323110000000     0.525250000000    -0.116963   
N24      N      0.409560000000     0.415150000000     0.522920000000    -0.228016   
N25      N      0.084360000000     0.868420000000     0.011700000000    -0.16622    
N26      N      0.150970000000     0.788450000000     0.011990000000    -0.113446   
N27      N      0.317320000000     0.658500000000     0.001460000000    -0.112885   
N28      N      0.393100000000     0.587450000000     0.007390000000    -0.178594   
N29      N      0.869050000000     0.910130000000     0.025260000000    -0.169003   
N30      N      0.788510000000     0.837430000000     0.036660000000    -0.114192   
N31      N      0.671850000000     0.651040000000     0.040230000000    -0.116347   
N32      N      0.585130000000     0.587570000000     0.021040000000    -0.230302   
N33      N      0.612290000000     0.398980000000     0.007470000000    -0.17889    
N34      N      0.691520000000     0.331360000000     0.013090000000    -0.112442   
N35      N      0.854790000000     0.196600000000     0.004780000000    -0.113036   
N36      N      0.919520000000     0.115030000000     0.005870000000    -0.16611    
N37      N      0.415270000000     0.400550000000     0.996200000000    -0.229016   
N38      N      0.368140000000     0.305790000000     0.977320000000    -0.11669    
N39      N      0.204030000000     0.156040000000     0.981090000000    -0.112954   
N40      N      0.131530000000     0.077560000000     0.991340000000    -0.168      
O1       O      0.036530000000     0.923770000000     0.981190000000    -0.394272   
O2       O      0.956800000000     0.050070000000     0.977760000000    -0.393806   
O3       O      0.062640000000     0.028680000000     0.970720000000    -0.40205    
O4       O      0.930380000000     0.945440000000     0.988030000000    -0.40306    
O5       O      0.941500000000     0.953410000000     0.046210000000    -0.402059   
O6       O      0.072260000000     0.039380000000     0.028880000000    -0.402187   
O7       O      0.964810000000     0.057730000000     0.036200000000    -0.395674   
O8       O      0.049100000000     0.934940000000     0.039000000000    -0.396138   
O9       O      0.076840000000     0.962940000000     0.487460000000    -0.393396   
O10      O      0.947120000000     0.040670000000     0.482970000000    -0.394575   
O11      O      0.053420000000     0.066710000000     0.495470000000    -0.403207   
O12      O      0.969530000000     0.938140000000     0.474940000000    -0.40276    
O13      O      0.955200000000     0.928090000000     0.532720000000    -0.402859   
O14      O      0.045990000000     0.052430000000     0.553370000000    -0.402669   
O15      O      0.938380000000     0.033230000000     0.541370000000    -0.394057   
O16      O      0.062380000000     0.947870000000     0.544640000000    -0.395905   
O17      O      0.534830000000     0.535570000000     0.962350000000    -0.478942   
O18      O      0.530250000000     0.508300000000     0.061520000000    -0.484387   
O19      O      0.586000000000     0.479150000000     0.007200000000    -0.471156   
O20      O      0.476620000000     0.568430000000     0.017020000000    -0.473056   
O21      O      0.420090000000     0.508140000000     0.000760000000    -0.472073   
O22      O      0.527120000000     0.416100000000     0.006110000000    -0.476068   
O23      O      0.462600000000     0.456150000000     0.053940000000    -0.479981   
O24      O      0.482350000000     0.469000000000     0.954080000000    -0.483608   
O25      O      0.528710000000     0.517980000000     0.454020000000    -0.48623    
O26      O      0.548160000000     0.532400000000     0.553810000000    -0.481138   
O27      O      0.585100000000     0.471510000000     0.503720000000    -0.475504   
O28      O      0.491550000000     0.576960000000     0.504490000000    -0.471943   
O29      O      0.427850000000     0.521920000000     0.517590000000    -0.469477   
O30      O      0.519090000000     0.415600000000     0.504710000000    -0.473153   
O31      O      0.489840000000     0.470430000000     0.561330000000    -0.48509    
O32      O      0.460050000000     0.467420000000     0.462350000000    -0.480565   


