data_structure

_audit_creation_method RASPA-1.0
_audit_creation_date 2023-6-4
_audit_author_name 'Poobodin Mano'

_cell_length_a    26.176
_cell_length_b    26.8228
_cell_length_c    37.6799
_cell_angle_alpha 89.9988
_cell_angle_beta  89.9988
_cell_angle_gamma 93.6731
_cell_volume      26401.2

_symmetry_cell_setting          triclinic
_symmetry_space_group_name_Hall 'P 1'
_symmetry_space_group_name_H-M  'P 1'
_symmetry_Int_Tables_number     1

_symmetry_equiv_pos_as_xyz 'x,y,z'

loop_
_atom_site_label
_atom_site_type_symbol
_atom_site_fract_x
_atom_site_fract_y
_atom_site_fract_z
_atom_site_charge
C1       C      0.074700000000     0.925420000000     0.016630000000     0.395501   
C2       C      0.936450000000     0.063880000000     0.012060000000     0.425162   
C3       C      0.079150000000     0.064630000000     0.999170000000     0.427608   
C4       C      0.932720000000     0.924980000000     0.029270000000     0.427592   
C5       C      0.075020000000     0.924550000000     0.507460000000     0.422653   
C6       C      0.929630000000     0.056270000000     0.509880000000     0.415892   
C7       C      0.072390000000     0.063790000000     0.523790000000     0.405902   
C8       C      0.933020000000     0.917500000000     0.493310000000     0.424043   
C9       C      0.517630000000     0.510080000000     0.945140000000     0.478876   
C10      C      0.494530000000     0.476700000000     0.077410000000     0.49752    
C11      C      0.574980000000     0.430790000000     0.007100000000     0.467845   
C12      C      0.439160000000     0.559020000000     0.013610000000     0.49101    
C13      C      0.494550000000     0.471760000000     0.445260000000     0.47564    
C14      C      0.515180000000     0.506840000000     0.577580000000     0.490829   
C15      C      0.569140000000     0.425100000000     0.515760000000     0.464141   
C16      C      0.437470000000     0.557510000000     0.508840000000     0.462893   
C17      C      0.571350000000     0.554020000000     0.664050000000    -0.0373923  
C18      C      0.495050000000     0.500710000000     0.847290000000    -0.0320406  
C19      C      0.568240000000     0.549810000000     0.896470000000    -0.000763468
C20      C      0.499170000000     0.479830000000     0.884770000000    -0.000594699
C21      C      0.577450000000     0.507350000000     0.776480000000    -0.0519483  
C22      C      0.508820000000     0.570580000000     0.745980000000    -0.051386   
C23      C      0.545850000000     0.534140000000     0.798420000000     0.0628959  
C24      C      0.560330000000     0.566820000000     0.858110000000    -0.0317715  
C25      C      0.538460000000     0.541720000000     0.723990000000     0.0622215  
C26      C      0.504940000000     0.489820000000     0.676430000000    -0.122166   
C27      C      0.574050000000     0.511100000000     0.739580000000    -0.0539553  
C28      C      0.484140000000     0.490400000000     0.638610000000     0.331217   
C29      C      0.554100000000     0.559100000000     0.625390000000     0.00365905 
C30      C      0.512520000000     0.567110000000     0.782910000000    -0.0545404  
C31      C      0.516280000000     0.487160000000     0.175350000000    -0.0374092  
C32      C      0.439830000000     0.428770000000     0.358130000000    -0.0317634  
C33      C      0.533250000000     0.479680000000     0.385900000000    -0.00163104 
C34      C      0.455260000000     0.420080000000     0.396850000000    -0.00279822 
C35      C      0.442020000000     0.474710000000     0.283870000000    -0.0548122  
C36      C      0.500490000000     0.417340000000     0.239330000000    -0.0539754  
C37      C      0.475470000000     0.441290000000     0.298750000000     0.0625389  
C38      C      0.513610000000     0.486410000000     0.348250000000    -0.0317463  
C39      C      0.467930000000     0.451590000000     0.224450000000     0.0621394  
C40      C      0.454870000000     0.417710000000     0.164990000000    -0.120386   
C41      C      0.438270000000     0.479540000000     0.247030000000    -0.0521447  
C42      C      0.446730000000     0.432880000000     0.126210000000     0.327562   
C43      C      0.510720000000     0.507440000000     0.137840000000     0.00441168 
C44      C      0.503960000000     0.412260000000     0.276150000000    -0.0519934  
C45      C      0.159380000000     0.825100000000     0.538770000000    -0.0353533  
C46      C      0.372990000000     0.674590000000     0.486420000000    -0.0314806  
C47      C      0.354780000000     0.585040000000     0.529860000000    -0.00695105 
C48      C      0.418710000000     0.645070000000     0.497570000000    -0.00307444 
C49      C      0.253220000000     0.698300000000     0.486030000000    -0.0536285  
C50      C      0.261690000000     0.785640000000     0.526770000000    -0.053721   
C51      C      0.294780000000     0.706220000000     0.509600000000     0.0622867  
C52      C      0.312750000000     0.618320000000     0.517580000000    -0.0293504  
C53      C      0.218150000000     0.775930000000     0.505220000000     0.062459   
C54      C      0.188680000000     0.852940000000     0.480950000000    -0.117563   
C55      C      0.215010000000     0.732520000000     0.484370000000    -0.051403   
C56      C      0.139890000000     0.880410000000     0.473880000000     0.323799   
C57      C      0.109180000000     0.850950000000     0.535350000000    -0.00136931 
C58      C      0.299070000000     0.750700000000     0.529260000000    -0.0511704  
C59      C      0.845650000000     0.803640000000     0.505860000000    -0.0352769  
C60      C      0.632920000000     0.637200000000     0.451720000000    -0.0238981  
C61      C      0.641000000000     0.572060000000     0.512030000000    -0.0179795  
C62      C      0.599550000000     0.588900000000     0.456370000000    -0.0160649  
C63      C      0.696860000000     0.726360000000     0.478430000000    -0.0547609  
C64      C      0.798450000000     0.719250000000     0.457200000000    -0.0544968  
C65      C      0.713850000000     0.679800000000     0.467890000000     0.0631045  
C66      C      0.674620000000     0.620480000000     0.508850000000    -0.0228462  
C67      C      0.781260000000     0.765680000000     0.467790000000     0.0638661  
C68      C      0.849520000000     0.821520000000     0.443140000000    -0.119266   
C69      C      0.730220000000     0.768860000000     0.477900000000    -0.0525643  
C70      C      0.877270000000     0.872910000000     0.449050000000     0.324737   
C71      C      0.870050000000     0.854470000000     0.516010000000     0.000810084
C72      C      0.764660000000     0.676790000000     0.456920000000    -0.052242   
C73      C      0.856100000000     0.167150000000     0.486420000000    -0.0355002  
C74      C      0.623460000000     0.300000000000     0.524920000000    -0.0309422  
C75      C      0.658990000000     0.403190000000     0.509980000000    -0.0029252  
C76      C      0.591610000000     0.342530000000     0.537760000000    -0.0042955  
C77      C      0.702340000000     0.237960000000     0.493760000000    -0.0539153  
C78      C      0.791350000000     0.239390000000     0.534930000000    -0.0534859  
C79      C      0.712270000000     0.276900000000     0.518450000000     0.0620321  
C80      C      0.686890000000     0.357560000000     0.497790000000    -0.0315716  
C81      C      0.779490000000     0.198520000000     0.512190000000     0.0619441  
C82      C      0.827630000000     0.137180000000     0.543980000000    -0.119118   
C83      C      0.735250000000     0.198880000000     0.491190000000    -0.0515174  
C84      C      0.852920000000     0.087520000000     0.539380000000     0.323569   
C85      C      0.881440000000     0.118440000000     0.478070000000    -0.00189423 
C86      C      0.757610000000     0.277600000000     0.538350000000    -0.0511043  
C87      C      0.368000000000     0.325330000000     0.513950000000    -0.0268476  
C88      C      0.162890000000     0.150710000000     0.574810000000    -0.0293484  
C89      C      0.131500000000     0.130930000000     0.501430000000    -0.00582146 
C90      C      0.111100000000     0.122640000000     0.567800000000    -0.00674574 
C91      C      0.265860000000     0.205090000000     0.564020000000    -0.0543717  
C92      C      0.256700000000     0.302890000000     0.540340000000    -0.0539487  
C93      C      0.218440000000     0.219780000000     0.551440000000     0.0645599  
C94      C      0.182630000000     0.156500000000     0.512160000000    -0.0293094  
C95      C      0.304150000000     0.288540000000     0.553170000000     0.0643593  
C96      C      0.343570000000     0.370450000000     0.567490000000    -0.112695   
C97      C      0.308150000000     0.239570000000     0.565280000000    -0.0513443  
C98      C      0.392960000000     0.403760000000     0.564400000000     0.314531   
C99      C      0.417670000000     0.358250000000     0.512250000000    -0.018599   
C100     C      0.214240000000     0.268950000000     0.540080000000    -0.0517711  
C101     C      0.310430000000     0.613380000000     0.016690000000    -0.0375458  
C102     C      0.176760000000     0.841320000000     0.989380000000    -0.0299624  
C103     C      0.116930000000     0.862870000000     0.052230000000    -0.0082612  
C104     C      0.125700000000     0.865590000000     0.984760000000    -0.00687768 
C105     C      0.258570000000     0.780840000000     0.042150000000    -0.0530155  
C106     C      0.247350000000     0.696020000000     0.998970000000    -0.0527674  
C107     C      0.214390000000     0.773480000000     0.020820000000     0.0618423  
C108     C      0.167440000000     0.836870000000     0.053040000000    -0.0297246  
C109     C      0.289800000000     0.701700000000     0.022070000000     0.0612086  
C110     C      0.374470000000     0.679540000000     0.003700000000    -0.120241   
C111     C      0.295040000000     0.744840000000     0.043210000000    -0.0511046  
C112     C      0.418530000000     0.647780000000     0.014870000000     0.327482   
C113     C      0.350640000000     0.577310000000     0.027750000000     0.00273223 
C114     C      0.209770000000     0.730910000000     0.999060000000    -0.0513242  
C115     C      0.831320000000     0.825100000000     0.013160000000    -0.0359174  
C116     C      0.625480000000     0.650400000000     0.069200000000    -0.0180749  
C117     C      0.615550000000     0.608350000000     0.999010000000    -0.0249855  
C118     C      0.580050000000     0.615360000000     0.058050000000    -0.0259006  
C119     C      0.734790000000     0.696370000000     0.060370000000    -0.0554682  
C120     C      0.727050000000     0.796760000000     0.042530000000    -0.0534303  
C121     C      0.688330000000     0.712540000000     0.047090000000     0.0650587  
C122     C      0.660860000000     0.644010000000     0.009180000000    -0.0184677  
C123     C      0.774450000000     0.779710000000     0.053210000000     0.0636522  
C124     C      0.822980000000     0.854190000000     0.073650000000    -0.119626   
C125     C      0.777510000000     0.729830000000     0.063190000000    -0.0519371  
C126     C      0.876980000000     0.879790000000     0.073400000000     0.325839   
C127     C      0.885610000000     0.848100000000     0.009920000000    -0.000248418
C128     C      0.684390000000     0.763150000000     0.039320000000    -0.0520848  
C129     C      0.835780000000     0.144640000000     0.976640000000    -0.0350217  
C130     C      0.694050000000     0.364660000000     0.023710000000    -0.0320541  
C131     C      0.599540000000     0.350270000000     0.982880000000    -0.00250379 
C132     C      0.665400000000     0.410400000000     0.012650000000    -0.00221357 
C133     C      0.711500000000     0.247040000000     0.027020000000    -0.053227   
C134     C      0.798300000000     0.246850000000     0.983710000000    -0.0536488  
C135     C      0.720430000000     0.285260000000     0.001670000000     0.0618601  
C136     C      0.631710000000     0.307630000000     0.994890000000    -0.0314038  
C137     C      0.787560000000     0.206870000000     0.007410000000     0.0628353  
C138     C      0.865480000000     0.178230000000     0.032900000000    -0.117905   
C139     C      0.744390000000     0.207970000000     0.029390000000    -0.0511169  
C140     C      0.892060000000     0.130630000000     0.042450000000     0.324765   
C141     C      0.861100000000     0.095360000000     0.982550000000    -0.000858715
C142     C      0.764570000000     0.285110000000     0.980580000000    -0.050788   
C143     C      0.171050000000     0.174570000000     0.011860000000    -0.0357698  
C144     C      0.378250000000     0.345450000000     0.952810000000    -0.0237188  
C145     C      0.370620000000     0.410170000000     0.013350000000    -0.0185553  
C146     C      0.410930000000     0.394310000000     0.957080000000    -0.0151033  
C147     C      0.316920000000     0.255020000000     0.980130000000    -0.0541722  
C148     C      0.213710000000     0.260950000000     0.962710000000    -0.0534987  
C149     C      0.298560000000     0.301340000000     0.970370000000     0.0644984  
C150     C      0.338160000000     0.361090000000     0.010690000000    -0.0212111  
C151     C      0.232300000000     0.214700000000     0.972350000000     0.064152   
C152     C      0.163460000000     0.158810000000     0.948880000000    -0.120061   
C153     C      0.284100000000     0.212130000000     0.980600000000    -0.0512103  
C154     C      0.136450000000     0.107170000000     0.954730000000     0.326257   
C155     C      0.146940000000     0.123330000000     0.021510000000     0.00103462 
C156     C      0.246910000000     0.303760000000     0.961350000000    -0.0516028  
Cu1      Cu     0.999730000000     0.986810000000     0.982290000000     0.860196   
Cu2      Cu     0.011960000000     0.002940000000     0.046260000000     0.873443   
Cu3      Cu     0.009380000000     0.998740000000     0.476650000000     0.871381   
Cu4      Cu     0.995950000000     0.982630000000     0.540540000000     0.860542   
Cu5      Cu     0.544800000000     0.531810000000     0.018680000000     1.18474    
Cu6      Cu     0.468300000000     0.456660000000     0.004240000000     1.1976     
Cu7      Cu     0.542090000000     0.527470000000     0.503640000000     1.18242    
Cu8      Cu     0.463620000000     0.454650000000     0.518850000000     1.21824    
F1       F      0.472330000000     0.441210000000     0.628810000000    -0.427292   
F2       F      0.444350000000     0.389880000000     0.105680000000    -0.440907   
F3       F      0.153880000000     0.925370000000     0.457280000000    -0.433138   
F4       F      0.916680000000     0.878690000000     0.424500000000    -0.431188   
F5       F      0.874130000000     0.075350000000     0.571700000000    -0.435321   
F6       F      0.383650000000     0.450770000000     0.577000000000    -0.431069   
F7       F      0.458940000000     0.657450000000     0.991530000000    -0.443567   
F8       F      0.875550000000     0.924680000000     0.091540000000    -0.431807   
F9       F      0.938260000000     0.144750000000     0.058740000000    -0.431138   
F10      F      0.097030000000     0.101170000000     0.930210000000    -0.433501   
H1       H      0.487720000000     0.588270000000     0.799280000000     0.0449583  
H2       H      0.589300000000     0.590650000000     0.672910000000     0.0381007  
H3       H      0.472730000000     0.478060000000     0.694520000000     0.0820133  
H4       H      0.604060000000     0.529740000000     0.897830000000     0.0380293  
H5       H      0.532700000000     0.593430000000     0.622910000000     0.0376118  
H6       H      0.482450000000     0.469380000000     0.829270000000     0.038795   
H7       H      0.596990000000     0.585110000000     0.848260000000     0.0380602  
H8       H      0.459930000000     0.468110000000     0.894150000000     0.0399723  
H9       H      0.481100000000     0.594100000000     0.734420000000     0.0493038  
H10      H      0.588750000000     0.564400000000     0.608360000000     0.0387867  
H11      H      0.603230000000     0.481820000000     0.788040000000     0.047796   
H12      H      0.600850000000     0.525950000000     0.665530000000     0.0414276  
H13      H      0.573710000000     0.583470000000     0.913650000000     0.0444702  
H14      H      0.448120000000     0.510260000000     0.638530000000     0.00852728 
H15      H      0.465220000000     0.528520000000     0.846830000000     0.0420851  
H16      H      0.530830000000     0.594960000000     0.857530000000     0.0437235  
H17      H      0.597260000000     0.488190000000     0.723300000000     0.0443574  
H18      H      0.534090000000     0.461410000000     0.678340000000     0.0862543  
H19      H      0.521190000000     0.445760000000     0.883730000000     0.0366791  
H20      H      0.530430000000     0.386990000000     0.287190000000     0.0478953  
H21      H      0.527250000000     0.519180000000     0.193200000000     0.037621   
H22      H      0.419000000000     0.397840000000     0.174830000000     0.0784973  
H23      H      0.563870000000     0.452800000000     0.385330000000     0.0373863  
H24      H      0.486260000000     0.539820000000     0.138770000000     0.0344202  
H25      H      0.418530000000     0.394360000000     0.348150000000     0.0381983  
H26      H      0.547160000000     0.495610000000     0.330710000000     0.0364869  
H27      H      0.420060000000     0.416930000000     0.413450000000     0.0405549  
H28      H      0.524490000000     0.395850000000     0.222600000000     0.0452329  
H29      H      0.549270000000     0.521650000000     0.128520000000     0.0393065  
H30      H      0.420300000000     0.498300000000     0.300670000000     0.0429347  
H31      H      0.547730000000     0.461060000000     0.175920000000     0.0428898  
H32      H      0.550930000000     0.516210000000     0.395080000000     0.0383675  
H33      H      0.409210000000     0.449900000000     0.124110000000    -0.0111628  
H34      H      0.413700000000     0.459900000000     0.357180000000     0.0392073  
H35      H      0.488520000000     0.518420000000     0.347560000000     0.0392217  
H36      H      0.413540000000     0.506460000000     0.236010000000     0.0475825  
H37      H      0.485870000000     0.391190000000     0.166160000000     0.0856179  
H38      H      0.473470000000     0.383820000000     0.398580000000     0.03748    
H39      H      0.331440000000     0.758120000000     0.546810000000     0.0479132  
H40      H      0.152750000000     0.792090000000     0.556470000000     0.0392535  
H41      H      0.204040000000     0.840970000000     0.454970000000     0.0803445  
H42      H      0.363080000000     0.592970000000     0.558320000000     0.0526323  
H43      H      0.077850000000     0.822130000000     0.529520000000     0.0401131  
H44      H      0.386840000000     0.714360000000     0.482690000000     0.0376588  
H45      H      0.281280000000     0.615790000000     0.537490000000     0.0408187  
H46      H      0.445910000000     0.644330000000     0.474910000000     0.0398842  
H47      H      0.266440000000     0.819600000000     0.542220000000     0.0447854  
H48      H      0.100410000000     0.867630000000     0.561490000000     0.0450574  
H49      H      0.249580000000     0.665370000000     0.469450000000     0.0438646  
H50      H      0.188330000000     0.851500000000     0.551570000000     0.0425463  
H51      H      0.339800000000     0.545370000000     0.528070000000     0.0614142  
H52      H      0.115050000000     0.857500000000     0.455350000000     0.00261961 
H53      H      0.357520000000     0.660300000000     0.460540000000     0.0402086  
H54      H      0.297170000000     0.603670000000     0.491860000000     0.0393818  
H55      H      0.182550000000     0.725020000000     0.466920000000     0.0501828  
H56      H      0.218290000000     0.878880000000     0.493580000000     0.0857494  
H57      H      0.439070000000     0.665170000000     0.519760000000     0.0411657  
H58      H      0.778510000000     0.641080000000     0.449450000000     0.0473201  
H59      H      0.820510000000     0.790100000000     0.528180000000     0.038449   
H60      H      0.826670000000     0.822770000000     0.418280000000     0.0798805  
H61      H      0.660540000000     0.540490000000     0.500020000000     0.0381169  
H62      H      0.839670000000     0.878330000000     0.525620000000     0.0431763  
H63      H      0.640790000000     0.643000000000     0.422950000000     0.035521   
H64      H      0.712390000000     0.614670000000     0.521210000000     0.0344271  
H65      H      0.561800000000     0.593720000000     0.443820000000     0.0348367  
H66      H      0.838130000000     0.715420000000     0.450350000000     0.0461203  
H67      H      0.896540000000     0.849180000000     0.538600000000     0.0453058  
H68      H      0.658410000000     0.729720000000     0.488240000000     0.0432637  
H69      H      0.875810000000     0.776570000000     0.502200000000     0.0436472  
H70      H      0.634180000000     0.563640000000     0.540520000000     0.0350191  
H71      H      0.849960000000     0.902100000000     0.443670000000    -0.0035554  
H72      H      0.610790000000     0.668490000000     0.461440000000     0.0381841  
H73      H      0.656330000000     0.650410000000     0.523840000000     0.0388462  
H74      H      0.716950000000     0.804080000000     0.487010000000     0.0488532  
H75      H      0.878460000000     0.793250000000     0.439600000000     0.087238   
H76      H      0.617530000000     0.557340000000     0.443120000000     0.037609   
H77      H      0.766740000000     0.307930000000     0.556710000000     0.0479621  
H78      H      0.844020000000     0.183710000000     0.460910000000     0.0393758  
H79      H      0.793820000000     0.130800000000     0.561710000000     0.0806128  
H80      H      0.678510000000     0.419210000000     0.534000000000     0.0394818  
H81      H      0.855620000000     0.095160000000     0.460380000000     0.0432745  
H82      H      0.617500000000     0.268010000000     0.543600000000     0.0396565  
H83      H      0.728500000000     0.368740000000     0.495870000000     0.0365488  
H84      H      0.550370000000     0.330530000000     0.534880000000     0.0443666  
H85      H      0.826090000000     0.241550000000     0.550530000000     0.0459032  
H86      H      0.917400000000     0.127920000000     0.463100000000     0.0454173  
H87      H      0.668870000000     0.237060000000     0.476900000000     0.043279   
H88      H      0.884360000000     0.194260000000     0.499270000000     0.0436494  
H89      H      0.662490000000     0.432040000000     0.488750000000     0.038932   
H90      H      0.822580000000     0.058040000000     0.532820000000    -0.00539563 
H91      H      0.609150000000     0.287720000000     0.498300000000     0.0384684  
H92      H      0.673230000000     0.345640000000     0.470910000000     0.0398065  
H93      H      0.726130000000     0.168540000000     0.472830000000     0.0485906  
H94      H      0.855450000000     0.164210000000     0.557270000000     0.0856088  
H95      H      0.599070000000     0.348580000000     0.566540000000     0.0460003  
H96      H      0.178370000000     0.280240000000     0.529330000000     0.0485941  
H97      H      0.375570000000     0.287670000000     0.503550000000     0.0359686  
H98      H      0.333920000000     0.365380000000     0.596070000000     0.0858716  
H99      H      0.105580000000     0.159790000000     0.492610000000     0.0438976  
H100     H      0.448410000000     0.340510000000     0.527140000000     0.0392097  
H101     H      0.160250000000     0.172360000000     0.599870000000     0.0403206  
H102     H      0.195790000000     0.182070000000     0.490230000000     0.0390647  
H103     H      0.105200000000     0.092410000000     0.587870000000     0.0485608  
H104     H      0.252640000000     0.339680000000     0.529390000000     0.0450869  
H105     H      0.429750000000     0.362290000000     0.484130000000     0.034906   
H106     H      0.270700000000     0.166870000000     0.571800000000     0.0451742  
H107     H      0.338870000000     0.341660000000     0.496630000000     0.0409531  
H108     H      0.138060000000     0.106360000000     0.478300000000     0.0531335  
H109     H      0.423550000000     0.388120000000     0.580670000000     0.021938   
H110     H      0.192390000000     0.123020000000     0.578380000000     0.0411239  
H111     H      0.211610000000     0.128210000000     0.515680000000     0.0450432  
H112     H      0.344660000000     0.227660000000     0.574410000000     0.0498688  
H113     H      0.312510000000     0.390200000000     0.554520000000     0.0827698  
H114     H      0.080350000000     0.148840000000     0.571790000000     0.0463018  
H115     H      0.176700000000     0.724810000000     0.981960000000     0.0464261  
H116     H      0.274420000000     0.603250000000     0.031440000000     0.0385297  
H117     H      0.386900000000     0.719490000000     0.008280000000     0.0778749  
H118     H      0.084880000000     0.834280000000     0.056610000000     0.042817   
H119     H      0.350840000000     0.574690000000     0.057200000000     0.0349435  
H120     H      0.184170000000     0.820110000000     0.964720000000     0.0376204  
H121     H      0.166990000000     0.811740000000     0.076550000000     0.0390137  
H122     H      0.130070000000     0.893970000000     0.963260000000     0.0459651  
H123     H      0.242190000000     0.664340000000     0.981330000000     0.0432667  
H124     H      0.338660000000     0.539490000000     0.017480000000     0.0401883  
H125     H      0.264800000000     0.813600000000     0.058670000000     0.0440632  
H126     H      0.302820000000     0.608310000000     0.987790000000     0.0419632  
H127     H      0.116640000000     0.889480000000     0.074850000000     0.0476787  
H128     H      0.431540000000     0.659570000000     0.041860000000    -0.0105825  
H129     H      0.208510000000     0.870680000000     0.992590000000     0.0427163  
H130     H      0.199460000000     0.865920000000     0.056240000000     0.0401942  
H131     H      0.327790000000     0.750620000000     0.060640000000     0.0480541  
H132     H      0.366580000000     0.674720000000     0.974790000000     0.0855357  
H133     H      0.096160000000     0.836520000000     0.976020000000     0.0428674  
H134     H      0.648820000000     0.776040000000     0.029210000000     0.0525731  
H135     H      0.827460000000     0.791800000000     0.995460000000     0.0385089  
H136     H      0.813390000000     0.842450000000     0.101320000000     0.0817662  
H137     H      0.584680000000     0.629210000000     0.986710000000     0.0588752  
H138     H      0.912710000000     0.818320000000     0.013970000000     0.0365863  
H139     H      0.612140000000     0.677280000000     0.089120000000     0.0369576  
H140     H      0.672980000000     0.666260000000     0.985350000000     0.0366309  
H141     H      0.566320000000     0.593910000000     0.081680000000     0.0391346  
H142     H      0.723790000000     0.835300000000     0.034830000000     0.0462384  
H143     H      0.891090000000     0.862180000000     0.982330000000     0.0445112  
H144     H      0.738820000000     0.657480000000     0.066720000000     0.0434352  
H145     H      0.804070000000     0.852560000000     0.003860000000     0.0437749  
H146     H      0.629150000000     0.581430000000     0.979310000000     0.038698   
H147     H      0.903100000000     0.855740000000     0.087850000000    -0.0043591  
H148     H      0.654870000000     0.627980000000     0.081840000000     0.0373385  
H149     H      0.693150000000     0.621490000000     0.017400000000     0.0369869  
H150     H      0.813780000000     0.716360000000     0.071480000000     0.0485141  
H151     H      0.794920000000     0.881280000000     0.065030000000     0.0866662  
H152     H      0.548360000000     0.637420000000     0.048250000000     0.0597693  
H153     H      0.772820000000     0.314850000000     0.961590000000     0.0476475  
H154     H      0.801660000000     0.137220000000     0.959340000000     0.0405707  
H155     H      0.853910000000     0.196220000000     0.058030000000     0.0813642  
H156     H      0.607700000000     0.358080000000     0.954380000000     0.0374     
H157     H      0.830920000000     0.066120000000     0.989910000000     0.0424766  
H158     H      0.735500000000     0.376360000000     0.025960000000     0.0382762  
H159     H      0.626450000000     0.276520000000     0.975420000000     0.0387487  
H160     H      0.668110000000     0.438150000000     0.034620000000     0.0425865  
H161     H      0.832260000000     0.248380000000     0.967300000000     0.0460075  
H162     H      0.877810000000     0.083730000000     0.956950000000     0.0494528  
H163     H      0.678900000000     0.246860000000     0.044660000000     0.0457238  
H164     H      0.863360000000     0.170900000000     0.962410000000     0.045596   
H165     H      0.558390000000     0.337460000000     0.984930000000     0.0459122  
H166     H      0.867800000000     0.108790000000     0.061920000000     0.00430565 
H167     H      0.680400000000     0.351240000000     0.050260000000     0.0434484  
H168     H      0.617160000000     0.293880000000     0.021100000000     0.043358   
H169     H      0.736270000000     0.178360000000     0.048500000000     0.0516624  
H170     H      0.892820000000     0.205000000000     0.018840000000     0.0876435  
H171     H      0.684850000000     0.427970000000     0.989130000000     0.0392075  
H172     H      0.232010000000     0.339310000000     0.954640000000     0.0486379  
H173     H      0.197680000000     0.186970000000     0.033660000000     0.0418947  
H174     H      0.184860000000     0.158430000000     0.923360000000     0.080132   
H175     H      0.349910000000     0.441140000000     0.001580000000     0.0395116  
H176     H      0.177790000000     0.098620000000     0.028900000000     0.0401212  
H177     H      0.369470000000     0.339640000000     0.924170000000     0.0362959  
H178     H      0.300660000000     0.365970000000     0.023750000000     0.0396956  
H179     H      0.448450000000     0.390070000000     0.944040000000     0.0351856  
H180     H      0.173500000000     0.264360000000     0.957340000000     0.0474743  
H181     H      0.122580000000     0.127560000000     0.045380000000     0.0535646  
H182     H      0.356080000000     0.252110000000     0.988630000000     0.0467803  
H183     H      0.140850000000     0.201910000000     0.009850000000     0.0497894  
H184     H      0.378000000000     0.418850000000     0.041730000000     0.0574593  
H185     H      0.164150000000     0.078380000000     0.949260000000    -0.00635558 
H186     H      0.401380000000     0.314600000000     0.962020000000     0.0406057  
H187     H      0.357780000000     0.331600000000     0.025240000000     0.052757   
H188     H      0.298520000000     0.177040000000     0.988970000000     0.0495094  
H189     H      0.134050000000     0.186860000000     0.946670000000     0.088432   
H190     H      0.392070000000     0.425560000000     0.944090000000     0.0382071  
N1       N      0.520530000000     0.515900000000     0.613290000000    -0.205059   
N2       N      0.526960000000     0.539520000000     0.686470000000    -0.102747   
N3       N      0.545000000000     0.523370000000     0.835980000000    -0.112009   
N4       N      0.525370000000     0.515980000000     0.909400000000    -0.17968    
N5       N      0.487170000000     0.469700000000     0.113170000000    -0.208517   
N6       N      0.467570000000     0.462140000000     0.186840000000    -0.10353    
N7       N      0.485820000000     0.440100000000     0.336380000000    -0.112393   
N8       N      0.492090000000     0.460000000000     0.409900000000    -0.181832   
N9       N      0.110390000000     0.888820000000     0.506700000000    -0.191028   
N10      N      0.176700000000     0.809280000000     0.503620000000    -0.103127   
N11      N      0.333500000000     0.670390000000     0.514100000000    -0.111835   
N12      N      0.402870000000     0.593860000000     0.509500000000    -0.175462   
N13      N      0.896820000000     0.879910000000     0.485830000000    -0.193119   
N14      N      0.815810000000     0.808870000000     0.473360000000    -0.103538   
N15      N      0.681670000000     0.634370000000     0.471180000000    -0.115512   
N16      N      0.592200000000     0.578640000000     0.494270000000    -0.230079   
N17      N      0.891470000000     0.089300000000     0.510410000000    -0.191566   
N18      N      0.811520000000     0.156440000000     0.509440000000    -0.103197   
N19      N      0.678110000000     0.316860000000     0.523550000000    -0.111699   
N20      N      0.604780000000     0.389940000000     0.518830000000    -0.17754    
N21      N      0.408890000000     0.407410000000     0.527100000000    -0.25359    
N22      N      0.349910000000     0.321310000000     0.550960000000    -0.105481   
N23      N      0.175700000000     0.184510000000     0.545010000000    -0.112407   
N24      N      0.107010000000     0.102650000000     0.531220000000    -0.164615   
N25      N      0.402900000000     0.593700000000     0.015790000000    -0.207251   
N26      N      0.328570000000     0.665290000000     0.024680000000    -0.10292    
N27      N      0.173560000000     0.807870000000     0.020270000000    -0.111848   
N28      N      0.108260000000     0.888180000000     0.018060000000    -0.164385   
N29      N      0.896470000000     0.887540000000     0.036750000000    -0.195681   
N30      N      0.821290000000     0.810480000000     0.050200000000    -0.103967   
N31      N      0.646320000000     0.677640000000     0.037940000000    -0.113718   
N32      N      0.596210000000     0.581060000000     0.030430000000    -0.224782   
N33      N      0.900020000000     0.098570000000     0.011120000000    -0.189455   
N34      N      0.820360000000     0.165530000000     0.010830000000    -0.102722   
N35      N      0.686110000000     0.325100000000     0.996940000000    -0.111711   
N36      N      0.611490000000     0.396660000000     0.003300000000    -0.17738    
N37      N      0.117430000000     0.100190000000     0.991650000000    -0.192772   
N38      N      0.198830000000     0.170850000000     0.978310000000    -0.10344    
N39      N      0.330090000000     0.347220000000     0.973120000000    -0.115166   
N40      N      0.419110000000     0.404670000000     0.994900000000    -0.22537    
O1       O      0.054700000000     0.936740000000     0.986790000000    -0.392141   
O2       O      0.945760000000     0.038510000000     0.984100000000    -0.389437   
O3       O      0.054940000000     0.041620000000     0.973870000000    -0.358009   
O4       O      0.946250000000     0.933110000000     0.996950000000    -0.406427   
O5       O      0.954030000000     0.950620000000     0.054560000000    -0.361083   
O6       O      0.068360000000     0.053940000000     0.031640000000    -0.397073   
O7       O      0.960330000000     0.056100000000     0.041110000000    -0.349445   
O8       O      0.062200000000     0.947760000000     0.045230000000    -0.392662   
O9       O      0.063840000000     0.947580000000     0.478840000000    -0.351396   
O10      O      0.953980000000     0.048810000000     0.480900000000    -0.394297   
O11      O      0.062390000000     0.052640000000     0.491330000000    -0.393553   
O12      O      0.954780000000     0.942960000000     0.468070000000    -0.358027   
O13      O      0.944290000000     0.927510000000     0.525780000000    -0.402138   
O14      O      0.049220000000     0.039710000000     0.549130000000    -0.392938   
O15      O      0.940360000000     0.032290000000     0.538120000000    -0.352095   
O16      O      0.051950000000     0.933630000000     0.536620000000    -0.398695   
O17      O      0.546780000000     0.533870000000     0.967120000000    -0.473794   
O18      O      0.525180000000     0.511950000000     0.066440000000    -0.491034   
O19      O      0.587910000000     0.475560000000     0.016130000000    -0.471666   
O20      O      0.486490000000     0.572930000000     0.015640000000    -0.44809    
O21      O      0.425450000000     0.512800000000     0.010460000000    -0.482138   
O22      O      0.528270000000     0.418020000000     0.000610000000    -0.470606   
O23      O      0.469610000000     0.449250000000     0.055200000000    -0.448677   
O24      O      0.482570000000     0.479130000000     0.956300000000    -0.48475    
O25      O      0.528800000000     0.503560000000     0.456220000000    -0.487785   
O26      O      0.542010000000     0.532610000000     0.555220000000    -0.481399   
O27      O      0.583430000000     0.470010000000     0.507700000000    -0.473299   
O28      O      0.483740000000     0.568520000000     0.500100000000    -0.475037   
O29      O      0.423790000000     0.513160000000     0.518250000000    -0.450019   
O30      O      0.521960000000     0.413080000000     0.521620000000    -0.472148   
O31      O      0.482390000000     0.473400000000     0.566730000000    -0.416473   
O32      O      0.463860000000     0.449890000000     0.467240000000    -0.485541   


