data_structure

_audit_creation_method RASPA-1.0
_audit_creation_date 2023-6-4
_audit_author_name 'Poobodin Mano'

_cell_length_a    24.6936
_cell_length_b    27.3402
_cell_length_c    37.6954
_cell_angle_alpha 89.9988
_cell_angle_beta  89.9988
_cell_angle_gamma 93.6707
_cell_volume      25397

_symmetry_cell_setting          triclinic
_symmetry_space_group_name_Hall 'P 1'
_symmetry_space_group_name_H-M  'P 1'
_symmetry_Int_Tables_number     1

_symmetry_equiv_pos_as_xyz 'x,y,z'

loop_
_atom_site_label
_atom_site_type_symbol
_atom_site_fract_x
_atom_site_fract_y
_atom_site_fract_z
_atom_site_charge
Br1      Br     0.519210000000     0.598820000000     0.622840000000    -0.249191   
Br2      Br     0.473810000000     0.601620000000     0.406180000000    -0.201709   
Br3      Br     0.454720000000     0.660210000000     0.450450000000    -0.20205    
Br4      Br     0.830150000000     0.983570000000     0.581230000000    -0.248681   
Br5      Br     0.605380000000     0.375230000000     0.441330000000    -0.246357   
Br6      Br     0.250850000000     0.025240000000     0.531900000000    -0.246465   
Br7      Br     0.072470000000     0.803500000000     0.085710000000    -0.240681   
Br8      Br     0.687130000000     0.475980000000     0.029930000000    -0.283168   
Br9      Br     0.027270000000     0.128480000000     0.080370000000    -0.238621   
Br10     Br     0.534080000000     0.318310000000     0.022120000000    -0.284127   
C1       C      0.074200000000     0.872720000000     0.014730000000     0.406422   
C2       C      0.986430000000     0.046220000000     0.020480000000     0.405289   
C3       C      0.125400000000     0.003600000000     0.999600000000     0.404405   
C4       C      0.935420000000     0.914330000000     0.034750000000     0.405      
C5       C      0.083470000000     0.922540000000     0.511370000000     0.403531   
C6       C      0.992360000000     0.093600000000     0.501930000000     0.402204   
C7       C      0.134540000000     0.051900000000     0.491400000000     0.4123     
C8       C      0.941620000000     0.963520000000     0.521670000000     0.409025   
C9       C      0.540150000000     0.451750000000     0.944280000000     0.47165    
C10      C      0.522970000000     0.467650000000     0.078160000000     0.464619   
C11      C      0.606210000000     0.400430000000     0.026910000000     0.401969   
C12      C      0.457930000000     0.519500000000     0.005620000000     0.469448   
C13      C      0.545720000000     0.519740000000     0.443260000000     0.488081   
C14      C      0.524400000000     0.499730000000     0.576050000000     0.482362   
C15      C      0.609460000000     0.446630000000     0.508540000000     0.479732   
C16      C      0.461680000000     0.566930000000     0.509140000000     0.48826    
C17      C      0.478620000000     0.449930000000     0.665540000000    -0.0332073  
C18      C      0.574680000000     0.483860000000     0.849260000000    -0.0310625  
C19      C      0.505780000000     0.412740000000     0.889510000000    -0.0018211  
C20      C      0.566790000000     0.493130000000     0.888830000000    -0.00248234 
C21      C      0.565560000000     0.438720000000     0.775920000000    -0.0557357  
C22      C      0.480530000000     0.483650000000     0.742590000000    -0.0548802  
C23      C      0.524520000000     0.458240000000     0.796500000000     0.0623779  
C24      C      0.518270000000     0.408680000000     0.849920000000    -0.0313412  
C25      C      0.522690000000     0.465980000000     0.721960000000     0.0613835  
C26      C      0.530720000000     0.525890000000     0.675260000000    -0.0637684  
C27      C      0.564670000000     0.442910000000     0.738930000000    -0.0524698  
C28      C      0.542390000000     0.533950000000     0.635590000000     0.121075   
C29      C      0.489390000000     0.449620000000     0.625650000000     0.00221015 
C30      C      0.481740000000     0.479900000000     0.779500000000    -0.052808   
C31      C      0.605190000000     0.521190000000     0.352900000000    -0.0332029  
C32      C      0.534350000000     0.518660000000     0.170330000000    -0.0314921  
C33      C      0.504220000000     0.426020000000     0.134920000000    -0.00383176 
C34      C      0.550470000000     0.513110000000     0.131630000000    -0.0015146  
C35      C      0.493970000000     0.471410000000     0.248320000000    -0.0551312  
C36      C      0.594640000000     0.501450000000     0.277670000000    -0.050729   
C37      C      0.539960000000     0.476590000000     0.226260000000     0.0641085  
C38      C      0.494730000000     0.436100000000     0.174430000000    -0.0307965  
C39      C      0.548430000000     0.497700000000     0.299980000000     0.0615543  
C40      C      0.513350000000     0.546990000000     0.348080000000    -0.0615338  
C41      C      0.498760000000     0.480050000000     0.284790000000    -0.0490017  
C42      C      0.500980000000     0.541250000000     0.387760000000     0.114232   
C43      C      0.603680000000     0.539580000000     0.391700000000     0.00413679 
C44      C      0.590220000000     0.490630000000     0.241560000000    -0.0532487  
C45      C      0.329890000000     0.623430000000     0.490770000000    -0.0348204  
C46      C      0.149900000000     0.812860000000     0.481020000000    -0.0306537  
C47      C      0.134780000000     0.865650000000     0.547080000000    -0.00474135 
C48      C      0.098630000000     0.840680000000     0.486420000000    -0.00624226 
C49      C      0.216410000000     0.727620000000     0.540380000000    -0.0513868  
C50      C      0.294280000000     0.732460000000     0.486530000000    -0.0553989  
C51      C      0.213080000000     0.762680000000     0.513420000000     0.0619948  
C52      C      0.185300000000     0.838280000000     0.538730000000    -0.0309505  
C53      C      0.298380000000     0.698600000000     0.514380000000     0.065522   
C54      C      0.396310000000     0.687410000000     0.513760000000    -0.0609421  
C55      C      0.258870000000     0.696260000000     0.541050000000    -0.0535495  
C56      C      0.439280000000     0.652580000000     0.500790000000     0.115809   
C57      C      0.365750000000     0.582310000000     0.501080000000     0.0112733  
C58      C      0.253130000000     0.765290000000     0.486650000000    -0.0512715  
C59      C      0.806770000000     0.893430000000     0.511610000000    -0.0329004  
C60      C      0.692450000000     0.647290000000     0.557360000000    -0.0200231  
C61      C      0.615100000000     0.640440000000     0.500230000000    -0.0258193  
C62      C      0.645710000000     0.607620000000     0.556110000000    -0.023192   
C63      C      0.701150000000     0.776360000000     0.553820000000    -0.0513377  
C64      C      0.806350000000     0.770000000000     0.527530000000    -0.0523728  
C65      C      0.716910000000     0.731660000000     0.540400000000     0.0641765  
C66      C      0.661910000000     0.679740000000     0.500890000000    -0.0188109  
C67      C      0.790200000000     0.814930000000     0.540250000000     0.0632045  
C68      C      0.843720000000     0.880190000000     0.570830000000    -0.0611868  
C69      C      0.737320000000     0.817800000000     0.553700000000    -0.0547407  
C70      C      0.874770000000     0.931070000000     0.566270000000     0.11707    
C71      C      0.854630000000     0.927360000000     0.499650000000     0.00492622 
C72      C      0.770080000000     0.728650000000     0.527440000000    -0.0555493  
C73      C      0.743080000000     0.392080000000     0.522880000000    -0.0325796  
C74      C      0.890420000000     0.177450000000     0.474530000000    -0.0308501  
C75      C      0.974760000000     0.174010000000     0.528400000000    -0.00585543 
C76      C      0.942580000000     0.152200000000     0.466390000000    -0.00561897 
C77      C      0.859250000000     0.293310000000     0.485920000000    -0.0528941  
C78      C      0.767780000000     0.264830000000     0.526430000000    -0.0512976  
C79      C      0.857010000000     0.248200000000     0.503620000000     0.0631201  
C80      C      0.921820000000     0.199100000000     0.534060000000    -0.0308018  
C81      C      0.770640000000     0.310520000000     0.509460000000     0.0617765  
C82      C      0.692110000000     0.340920000000     0.481010000000    -0.0627669  
C83      C      0.816290000000     0.323990000000     0.488320000000    -0.054346   
C84      C      0.639410000000     0.366540000000     0.487730000000     0.119774   
C85      C      0.693930000000     0.419930000000     0.533180000000    -0.00136528 
C86      C      0.810150000000     0.233550000000     0.523230000000    -0.0551754  
C87      C      0.229080000000     0.135550000000     0.442900000000    -0.032809   
C88      C      0.414970000000     0.332030000000     0.512570000000    -0.019072   
C89      C      0.429390000000     0.408110000000     0.460000000000    -0.022374   
C90      C      0.461090000000     0.371880000000     0.514290000000    -0.0255501  
C91      C      0.373730000000     0.238330000000     0.457920000000    -0.0523208  
C92      C      0.269840000000     0.244180000000     0.486530000000    -0.0521489  
C93      C      0.358830000000     0.282670000000     0.472470000000     0.0639834  
C94      C      0.383470000000     0.367740000000     0.457310000000    -0.0200704  
C95      C      0.285270000000     0.199550000000     0.472880000000     0.0626739  
C96      C      0.270550000000     0.120110000000     0.500790000000    -0.0640205  
C97      C      0.337380000000     0.196980000000     0.458120000000    -0.054271   
C98      C      0.223420000000     0.085200000000     0.513140000000     0.120558   
C99      C      0.202730000000     0.082990000000     0.447080000000    -0.00305683 
C100     C      0.306200000000     0.285450000000     0.486460000000    -0.0557045  
C101     C      0.127950000000     0.753650000000     0.981570000000    -0.0317136  
C102     C      0.388850000000     0.637810000000     0.004210000000    -0.0314487  
C103     C      0.361000000000     0.532750000000     0.997530000000    -0.00204038 
C104     C      0.428620000000     0.601800000000     0.018250000000    -0.00265149 
C105     C      0.240840000000     0.639850000000     0.019380000000    -0.0515805  
C106     C      0.258810000000     0.728840000000     0.983580000000    -0.05281    
C107     C      0.290700000000     0.650170000000     0.002230000000     0.0610706  
C108     C      0.325810000000     0.572790000000     0.983550000000    -0.0319172  
C109     C      0.210530000000     0.719730000000     0.002690000000     0.0617098  
C110     C      0.153590000000     0.764180000000     0.042560000000    -0.0630113  
C111     C      0.200610000000     0.673570000000     0.018960000000    -0.0549338  
C112     C      0.124540000000     0.811830000000     0.046660000000     0.117693   
C113     C      0.100130000000     0.802200000000     0.979630000000    -0.00198047 
C114     C      0.298140000000     0.694170000000     0.982670000000    -0.0541568  
C115     C      0.651180000000     0.638530000000     0.010140000000    -0.0255584  
C116     C      0.860040000000     0.814950000000     0.077590000000    -0.0316718  
C117     C      0.844330000000     0.881700000000     0.016530000000    -0.00503406 
C118     C      0.877210000000     0.870170000000     0.079450000000    -0.00485922 
C119     C      0.755980000000     0.748470000000     0.068460000000    -0.0556552  
C120     C      0.775090000000     0.676890000000     0.017710000000    -0.0548957  
C121     C      0.800260000000     0.755450000000     0.045150000000     0.064012   
C122     C      0.803080000000     0.840560000000     0.027750000000    -0.02982    
C123     C      0.731240000000     0.669610000000     0.041380000000     0.0630636  
C124     C      0.713430000000     0.580700000000     0.033810000000    -0.0559558  
C125     C      0.722360000000     0.705540000000     0.066850000000    -0.0529207  
C126     C      0.666210000000     0.541920000000     0.036390000000     0.100465   
C127     C      0.604420000000     0.599100000000     0.011980000000    -0.0161732  
C128     C      0.809680000000     0.719240000000     0.020000000000    -0.0521897  
C129     C      0.918590000000     0.161660000000     0.994900000000    -0.0319985  
C130     C      0.670610000000     0.284910000000     0.031210000000    -0.0131824  
C131     C      0.700470000000     0.387330000000     0.046480000000    -0.0486077  
C132     C      0.629540000000     0.318040000000     0.047750000000    -0.0495283  
C133     C      0.816850000000     0.275450000000     0.053970000000    -0.0520577  
C134     C      0.802080000000     0.195430000000     0.008330000000    -0.0510211  
C135     C      0.768960000000     0.269940000000     0.033950000000     0.0628974  
C136     C      0.739070000000     0.353760000000     0.027950000000    -0.0127798  
C137     C      0.849450000000     0.200220000000     0.029060000000     0.0604718  
C138     C      0.924500000000     0.159780000000     0.058240000000    -0.0624693  
C139     C      0.857140000000     0.242010000000     0.051050000000    -0.0526968  
C140     C      0.956650000000     0.113160000000     0.058070000000     0.116788   
C141     C      0.941360000000     0.111430000000     0.989770000000    -0.00109683 
C142     C      0.762950000000     0.230280000000     0.009990000000    -0.0543934  
C143     C      0.350680000000     0.331130000000     0.995090000000    -0.026457   
C144     C      0.262220000000     0.070790000000     0.004700000000    -0.0287845  
C145     C      0.185260000000     0.043800000000     0.954120000000    -0.00532206 
C146     C      0.217940000000     0.033030000000     0.017210000000    -0.00591756 
C147     C      0.265650000000     0.190820000000     0.012950000000    -0.0530722  
C148     C      0.344330000000     0.206310000000     0.960210000000    -0.0525255  
C149     C      0.270280000000     0.155730000000     0.986290000000     0.0649733  
C150     C      0.206330000000     0.098110000000     0.954730000000    -0.0305486  
C151     C      0.338980000000     0.242010000000     0.986450000000     0.0623789  
C152     C      0.425740000000     0.278200000000     0.006120000000    -0.0570473  
C153     C      0.300370000000     0.233100000000     0.013610000000    -0.0535639  
C154     C      0.465270000000     0.322240000000     0.999050000000     0.104401   
C155     C      0.391850000000     0.375220000000     0.990910000000    -0.0170156  
C156     C      0.311210000000     0.162970000000     0.960510000000    -0.0561588  
Cu1      Cu     0.017970000000     0.956080000000     0.985570000000     0.834707   
Cu2      Cu     0.042480000000     0.962730000000     0.048950000000     0.871799   
Cu3      Cu     0.029330000000     0.000820000000     0.474650000000     0.844655   
Cu4      Cu     0.046500000000     0.015250000000     0.538450000000     0.857996   
Cu5      Cu     0.570940000000     0.498790000000     0.011190000000     1.18276    
Cu6      Cu     0.493790000000     0.419850000000     0.011260000000     1.17524    
Cu7      Cu     0.576670000000     0.544790000000     0.514990000000     1.19821    
Cu8      Cu     0.496080000000     0.469610000000     0.503410000000     1.18456    
H1       H      0.449730000000     0.494740000000     0.795020000000     0.0466044  
H2       H      0.471280000000     0.411300000000     0.674590000000     0.0366203  
H3       H      0.564700000000     0.544410000000     0.690620000000     0.053781   
H4       H      0.462900000000     0.422240000000     0.892650000000     0.0381578  
H5       H      0.515370000000     0.418930000000     0.619460000000     0.0361854  
H6       H      0.582560000000     0.519900000000     0.835820000000     0.0369681  
H7       H      0.483560000000     0.387750000000     0.836910000000     0.0361414  
H8       H      0.606850000000     0.504610000000     0.900740000000     0.0425814  
H9       H      0.447440000000     0.501450000000     0.730270000000     0.0435328  
H10      H      0.450280000000     0.441400000000     0.611550000000     0.040555   
H11      H      0.598750000000     0.421330000000     0.788470000000     0.042417   
H12      H      0.441040000000     0.469220000000     0.670830000000     0.040797   
H13      H      0.509070000000     0.376190000000     0.902040000000     0.040543   
H14      H      0.587090000000     0.535050000000     0.631500000000     0.0253509  
H15      H      0.611020000000     0.462320000000     0.845370000000     0.0382216  
H16      H      0.555150000000     0.387830000000     0.846080000000     0.0384617  
H17      H      0.597310000000     0.429040000000     0.723460000000     0.0465646  
H18      H      0.493040000000     0.543710000000     0.682800000000     0.0624656  
H19      H      0.540600000000     0.524470000000     0.892010000000     0.0391047  
H20      H      0.626150000000     0.494540000000     0.225060000000     0.0472165  
H21      H      0.628780000000     0.487900000000     0.351850000000     0.0468281  
H22      H      0.474150000000     0.543460000000     0.333600000000     0.0525365  
H23      H      0.536300000000     0.399430000000     0.132550000000     0.0428595  
H24      H      0.635740000000     0.522390000000     0.407280000000     0.0453853  
H25      H      0.563050000000     0.546950000000     0.182490000000     0.0362646  
H26      H      0.495110000000     0.400850000000     0.189170000000     0.0381586  
H27      H      0.542720000000     0.547560000000     0.117280000000     0.0388048  
H28      H      0.634700000000     0.512440000000     0.287370000000     0.0424184  
H29      H      0.613600000000     0.579860000000     0.392110000000     0.0423467  
H30      H      0.454310000000     0.460600000000     0.237770000000     0.0434008  
H31      H      0.627110000000     0.550840000000     0.337340000000     0.0355104  
H32      H      0.466560000000     0.407870000000     0.123500000000     0.0444055  
H33      H      0.468660000000     0.511460000000     0.391620000000     0.0327821  
H34      H      0.492760000000     0.532060000000     0.172230000000     0.0401233  
H35      H      0.453840000000     0.450550000000     0.177530000000     0.0377175  
H36      H      0.462910000000     0.473990000000     0.301140000000     0.0463691  
H37      H      0.532200000000     0.584220000000     0.342090000000     0.062356   
H38      H      0.594880000000     0.508560000000     0.130210000000     0.0433345  
H39      H      0.252780000000     0.792090000000     0.465610000000     0.0452768  
H40      H      0.286770000000     0.608980000000     0.492580000000     0.0390594  
H41      H      0.407600000000     0.699550000000     0.541070000000     0.0551088  
H42      H      0.106580000000     0.841470000000     0.563310000000     0.0404872  
H43      H      0.350250000000     0.564710000000     0.526000000000     0.0421451  
H44      H      0.139860000000     0.780760000000     0.463540000000     0.0374428  
H45      H      0.202190000000     0.825570000000     0.564260000000     0.0398715  
H46      H      0.086570000000     0.856190000000     0.460560000000     0.0440872  
H47      H      0.323150000000     0.733870000000     0.464890000000     0.0524335  
H48      H      0.362850000000     0.553700000000     0.480040000000     0.0467737  
H49      H      0.186350000000     0.725240000000     0.561330000000     0.0463566  
H50      H      0.337810000000     0.635280000000     0.462910000000     0.0604672  
H51      H      0.147290000000     0.898430000000     0.563300000000     0.0509667  
H52      H      0.477960000000     0.663000000000     0.514790000000     0.0320069  
H53      H      0.180640000000     0.837860000000     0.467440000000     0.0428133  
H54      H      0.216630000000     0.863560000000     0.525890000000     0.0506398  
H55      H      0.260880000000     0.669790000000     0.562300000000     0.0490802  
H56      H      0.399080000000     0.721030000000     0.497160000000     0.0587213  
H57      H      0.065260000000     0.814080000000     0.495030000000     0.0387065  
H58      H      0.783070000000     0.694760000000     0.516440000000     0.0428677  
H59      H      0.788550000000     0.874760000000     0.487770000000     0.038883   
H60      H      0.871140000000     0.855260000000     0.584240000000     0.0496215  
H61      H      0.578790000000     0.655220000000     0.512720000000     0.052173   
H62      H      0.876600000000     0.908760000000     0.478240000000     0.0436296  
H63      H      0.701110000000     0.656820000000     0.585580000000     0.0380708  
H64      H      0.648420000000     0.713130000000     0.487490000000     0.0397625  
H65      H      0.658810000000     0.573860000000     0.569050000000     0.0395308  
H66      H      0.846720000000     0.767450000000     0.516740000000     0.0472875  
H67      H      0.839570000000     0.961290000000     0.488000000000     0.0431734  
H68      H      0.660200000000     0.779330000000     0.563520000000     0.0513677  
H69      H      0.775130000000     0.914970000000     0.524170000000     0.0536085  
H70      H      0.605120000000     0.630830000000     0.472270000000     0.0483738  
H71      H      0.910060000000     0.932610000000     0.584650000000     0.0322906  
H72      H      0.729310000000     0.632390000000     0.545580000000     0.0371635  
H73      H      0.696980000000     0.666440000000     0.485930000000     0.0390306  
H74      H      0.723670000000     0.852290000000     0.563190000000     0.0491129  
H75      H      0.808330000000     0.883320000000     0.588760000000     0.0606836  
H76      H      0.610320000000     0.620410000000     0.570830000000     0.0578348  
H77      H      0.806320000000     0.198180000000     0.536160000000     0.0468165  
H78      H      0.771250000000     0.392290000000     0.545950000000     0.0367706  
H79      H      0.681010000000     0.302400000000     0.472900000000     0.0568638  
H80      H      0.006960000000     0.202410000000     0.520890000000     0.0387582  
H81      H      0.679060000000     0.406490000000     0.559500000000     0.0361891  
H82      H      0.874750000000     0.192150000000     0.449250000000     0.0379759  
H83      H      0.929600000000     0.230040000000     0.552940000000     0.0379289  
H84      H      0.932370000000     0.120490000000     0.448620000000     0.0438873  
H85      H      0.732370000000     0.253370000000     0.542020000000     0.0483929  
H86      H      0.707490000000     0.459250000000     0.536530000000     0.0427998  
H87      H      0.894390000000     0.304530000000     0.469990000000     0.0466716  
H88      H      0.764400000000     0.411790000000     0.500550000000     0.0402558  
H89      H      0.986990000000     0.157660000000     0.553940000000     0.0460479  
H90      H      0.611440000000     0.341660000000     0.503600000000     0.0240716  
H91      H      0.859230000000     0.150160000000     0.485310000000     0.0444329  
H92      H      0.891570000000     0.172180000000     0.546200000000     0.0449083  
H93      H      0.818970000000     0.358180000000     0.473810000000     0.0431601  
H94      H      0.715190000000     0.359160000000     0.458710000000     0.062066   
H95      H      0.970870000000     0.178410000000     0.451870000000     0.0396796  
H96      H      0.293820000000     0.319000000000     0.498320000000     0.0429318  
H97      H      0.198240000000     0.159400000000     0.432040000000     0.0422632  
H98      H      0.289860000000     0.138100000000     0.524550000000     0.0556505  
H99      H      0.465350000000     0.397720000000     0.444600000000     0.0513084  
H100     H      0.169130000000     0.077380000000     0.427580000000     0.0439596  
H101     H      0.429300000000     0.298020000000     0.524640000000     0.0358094  
H102     H      0.375260000000     0.359870000000     0.428790000000     0.0375139  
H103     H      0.471270000000     0.379480000000     0.542500000000     0.035787   
H104     H      0.230050000000     0.246520000000     0.498260000000     0.0475636  
H105     H      0.233600000000     0.056620000000     0.440310000000     0.0432285  
H106     H      0.414210000000     0.235500000000     0.447380000000     0.0508605  
H107     H      0.262410000000     0.134710000000     0.423080000000     0.0361409  
H108     H      0.414940000000     0.442340000000     0.448530000000     0.0422901  
H109     H      0.202230000000     0.103010000000     0.535260000000     0.0331259  
H110     H      0.380010000000     0.343840000000     0.528400000000     0.0378713  
H111     H      0.346180000000     0.381410000000     0.469390000000     0.0376786  
H112     H      0.350390000000     0.162710000000     0.447770000000     0.044991   
H113     H      0.301800000000     0.099640000000     0.486810000000     0.0616695  
H114     H      0.497590000000     0.358700000000     0.500960000000     0.0515324  
H115     H      0.335010000000     0.703030000000     0.967930000000     0.0414092  
H116     H      0.142250000000     0.744630000000     0.954470000000     0.0361672  
H117     H      0.187940000000     0.764890000000     0.061740000000     0.054737   
H118     H      0.343140000000     0.518000000000     0.022730000000     0.0389903  
H119     H      0.122670000000     0.826650000000     0.960320000000     0.0407345  
H120     H      0.393430000000     0.671830000000     0.020450000000     0.0360319  
H121     H      0.282770000000     0.557950000000     0.983640000000     0.0348947  
H122     H      0.470540000000     0.616310000000     0.011740000000     0.0383471  
H123     H      0.266550000000     0.763540000000     0.970070000000     0.0464117  
H124     H      0.058550000000     0.795210000000     0.968630000000     0.0412417  
H125     H      0.233600000000     0.605810000000     0.033810000000     0.0457871  
H126     H      0.098160000000     0.723510000000     0.989950000000     0.0410211  
H127     H      0.359780000000     0.502100000000     0.978070000000     0.0355142  
H128     H      0.155210000000     0.841170000000     0.055050000000     0.0311512  
H129     H      0.399780000000     0.647240000000     0.976250000000     0.0369901  
H130     H      0.337120000000     0.582230000000     0.955660000000     0.0390926  
H131     H      0.162900000000     0.664150000000     0.032620000000     0.0444517  
H132     H      0.125110000000     0.732490000000     0.049710000000     0.0617399  
H133     H      0.425500000000     0.600550000000     0.047670000000     0.0377055  
H134     H      0.842760000000     0.724800000000     0.001270000000     0.0488717  
H135     H      0.634250000000     0.674850000000     0.014370000000     0.0334903  
H136     H      0.742910000000     0.574640000000     0.055450000000     0.053154   
H137     H      0.862210000000     0.871770000000     0.990610000000     0.0469339  
H138     H      0.581660000000     0.602390000000     0.037250000000     0.0375349  
H139     H      0.897020000000     0.794010000000     0.079830000000     0.0528112  
H140     H      0.780190000000     0.827230000000     0.003800000000     0.0360009  
H141     H      0.843450000000     0.889490000000     0.091530000000     0.0357894  
H142     H      0.781870000000     0.650660000000     0.996960000000     0.0438045  
H143     H      0.576420000000     0.604620000000     0.989500000000     0.0354075  
H144     H      0.746540000000     0.776700000000     0.087190000000     0.0425449  
H145     H      0.670260000000     0.638390000000     0.983360000000     0.0393561  
H146     H      0.823480000000     0.916100000000     0.012460000000     0.0345902  
H147     H      0.647760000000     0.543760000000     0.063240000000     0.0245902  
H148     H      0.834170000000     0.805360000000     0.101020000000     0.0362614  
H149     H      0.773570000000     0.854590000000     0.047000000000     0.0371264  
H150     H      0.687870000000     0.701040000000     0.084570000000     0.0455857  
H151     H      0.734070000000     0.577330000000     0.007770000000     0.0561829  
H152     H      0.912900000000     0.875770000000     0.097300000000     0.0510155  
H153     H      0.727330000000     0.224740000000     0.993450000000     0.0431379  
H154     H      0.892710000000     0.168810000000     0.971530000000     0.0354561  
H155     H      0.901290000000     0.160540000000     0.083540000000     0.0532119  
H156     H      0.708140000000     0.385720000000     0.075560000000     0.0547349  
H157     H      0.908330000000     0.085570000000     0.979590000000     0.0413981  
H158     H      0.661980000000     0.247110000000     0.041560000000     0.0363033  
H159     H      0.781390000000     0.366690000000     0.034770000000     0.0352367  
H160     H      0.588490000000     0.311270000000     0.037490000000     0.128984   
H161     H      0.795130000000     0.164050000000     0.991010000000     0.0450174  
H162     H      0.973180000000     0.114180000000     0.968850000000     0.0407573  
H163     H      0.822640000000     0.305570000000     0.072540000000     0.046427   
H164     H      0.952220000000     0.190870000000     0.995350000000     0.0434283  
H165     H      0.703030000000     0.425770000000     0.038650000000     0.127701   
H166     H      0.934940000000     0.085470000000     0.075480000000     0.0307718  
H167     H      0.665130000000     0.284580000000     0.001890000000     0.0418473  
H168     H      0.734190000000     0.355930000000     0.998640000000     0.0436701  
H169     H      0.893010000000     0.248540000000     0.067180000000     0.0445956  
H170     H      0.953490000000     0.192710000000     0.057780000000     0.0617605  
H171     H      0.629370000000     0.312960000000     0.077040000000     0.0543267  
H172     H      0.317760000000     0.135250000000     0.940760000000     0.0423493  
H173     H      0.315400000000     0.336270000000     0.977440000000     0.0349258  
H174     H      0.444590000000     0.244460000000     0.997080000000     0.0530061  
H175     H      0.149070000000     0.039680000000     0.936580000000     0.0430477  
H176     H      0.401840000000     0.381550000000     0.962430000000     0.0353351  
H177     H      0.286590000000     0.083670000000     0.028150000000     0.0379095  
H178     H      0.171050000000     0.121230000000     0.952560000000     0.0452337  
H179     H      0.235820000000     0.997430000000     0.022380000000     0.0364185  
H180     H      0.375120000000     0.211770000000     0.939870000000     0.0456388  
H181     H      0.373040000000     0.408050000000     0.001350000000     0.0362081  
H182     H      0.235680000000     0.184770000000     0.033730000000     0.0531572  
H183     H      0.336570000000     0.330580000000     0.023090000000     0.0387627  
H184     H      0.217160000000     0.021920000000     0.942290000000     0.0341612  
H185     H      0.474100000000     0.324710000000     0.970110000000     0.0245893  
H186     H      0.289870000000     0.053920000000     0.985550000000     0.0372973  
H187     H      0.231890000000     0.105250000000     0.930830000000     0.033284   
H188     H      0.296690000000     0.258390000000     0.035360000000     0.0442038  
H189     H      0.416760000000     0.274900000000     0.035020000000     0.0579455  
H190     H      0.201110000000     0.045680000000     0.042770000000     0.0528147  
N1       N      0.516530000000     0.495680000000     0.611970000000    -0.186848   
N2       N      0.525610000000     0.473520000000     0.684010000000    -0.108032   
N3       N      0.525710000000     0.457990000000     0.834750000000    -0.112332   
N4       N      0.541260000000     0.450350000000     0.907990000000    -0.179692   
N5       N      0.549830000000     0.529880000000     0.407900000000    -0.183913   
N6       N      0.550390000000     0.509220000000     0.337870000000    -0.103389   
N7       N      0.537390000000     0.471190000000     0.188050000000    -0.111506   
N8       N      0.521520000000     0.470480000000     0.114370000000    -0.17779    
N9       N      0.422830000000     0.600280000000     0.506400000000    -0.182441   
N10      N      0.340480000000     0.664320000000     0.515400000000    -0.10483    
N11      N      0.170280000000     0.796420000000     0.515520000000    -0.11222    
N12      N      0.106920000000     0.878680000000     0.514100000000    -0.165512   
N13      N      0.892190000000     0.940330000000     0.529170000000    -0.172219   
N14      N      0.826990000000     0.857780000000     0.536620000000    -0.105746   
N15      N      0.676840000000     0.691020000000     0.537950000000    -0.114899   
N16      N      0.630530000000     0.596530000000     0.519190000000    -0.225807   
N17      N      0.648780000000     0.413470000000     0.507420000000    -0.187521   
N18      N      0.725600000000     0.341480000000     0.513140000000    -0.108935   
N19      N      0.902160000000     0.217480000000     0.499970000000    -0.112845   
N20      N      0.968940000000     0.137530000000     0.499530000000    -0.166057   
N21      N      0.184810000000     0.073400000000     0.483950000000    -0.172795   
N22      N      0.248790000000     0.156590000000     0.477000000000    -0.107416   
N23      N      0.399370000000     0.322940000000     0.475300000000    -0.114382   
N24      N      0.444210000000     0.416720000000     0.497280000000    -0.224896   
N25      N      0.097320000000     0.828330000000     0.013970000000    -0.171801   
N26      N      0.173800000000     0.758790000000     0.006230000000    -0.107706   
N27      N      0.332910000000     0.616020000000     0.006570000000    -0.111627   
N28      N      0.417500000000     0.551510000000     0.004410000000    -0.18049    
N29      N      0.625380000000     0.550260000000     0.009200000000    -0.231796   
N30      N      0.691230000000     0.629190000000     0.037840000000    -0.112741   
N31      N      0.832680000000     0.801130000000     0.043720000000    -0.109874   
N32      N      0.887290000000     0.889940000000     0.043490000000    -0.165087   
N33      N      0.963680000000     0.090730000000     0.022560000000    -0.171391   
N34      N      0.887110000000     0.161210000000     0.027910000000    -0.106842   
N35      N      0.726440000000     0.303200000000     0.040630000000    -0.115774   
N36      N      0.644300000000     0.369590000000     0.039440000000    -0.146464   
N37      N      0.441120000000     0.366830000000     0.011270000000    -0.232083   
N38      N      0.375870000000     0.285150000000     0.985830000000    -0.112149   
N39      N      0.235600000000     0.111410000000     0.988010000000    -0.109666   
N40      N      0.174370000000     0.026110000000     0.990540000000    -0.165142   
O1       O      0.052020000000     0.889560000000     0.986730000000    -0.392052   
O2       O      0.986830000000     0.023080000000     0.990790000000    -0.393715   
O3       O      0.091560000000     0.989850000000     0.975220000000    -0.398945   
O4       O      0.946300000000     0.923550000000     0.002050000000    -0.397912   
O5       O      0.969590000000     0.927200000000     0.059180000000    -0.392976   
O6       O      0.113690000000     0.996410000000     0.032450000000    -0.392853   
O7       O      0.006740000000     0.027620000000     0.048390000000    -0.380376   
O8       O      0.075430000000     0.897520000000     0.043610000000    -0.383618   
O9       O      0.064240000000     0.935970000000     0.481510000000    -0.394998   
O10      O      0.995410000000     0.066530000000     0.474260000000    -0.396812   
O11      O      0.103690000000     0.035280000000     0.466140000000    -0.396801   
O12      O      0.956830000000     0.968250000000     0.489240000000    -0.399334   
O13      O      0.972330000000     0.980400000000     0.546930000000    -0.390821   
O14      O      0.119010000000     0.047830000000     0.523810000000    -0.388886   
O15      O      0.011340000000     0.079820000000     0.531750000000    -0.395017   
O16      O      0.080670000000     0.949880000000     0.538880000000    -0.393968   
O17      O      0.566590000000     0.486040000000     0.960800000000    -0.48093    
O18      O      0.553200000000     0.498630000000     0.060910000000    -0.473179   
O19      O      0.619080000000     0.446480000000     0.022010000000    -0.393517   
O20      O      0.506990000000     0.535770000000     0.008700000000    -0.478011   
O21      O      0.446300000000     0.473530000000     0.005090000000    -0.478931   
O22      O      0.557210000000     0.383440000000     0.020670000000    -0.39291    
O23      O      0.496380000000     0.432930000000     0.061990000000    -0.46293    
O24      O      0.510390000000     0.420310000000     0.961300000000    -0.482144   
O25      O      0.582750000000     0.536380000000     0.464150000000    -0.476736   
O26      O      0.556330000000     0.533840000000     0.563750000000    -0.470386   
O27      O      0.620790000000     0.489570000000     0.520420000000    -0.478262   
O28      O      0.511760000000     0.581460000000     0.510040000000    -0.467583   
O29      O      0.447760000000     0.521390000000     0.508650000000    -0.470062   
O30      O      0.561580000000     0.434480000000     0.497970000000    -0.469389   
O31      O      0.499760000000     0.469390000000     0.555050000000    -0.478974   
O32      O      0.503910000000     0.495920000000     0.455420000000    -0.4634     


