data_structure

_audit_creation_method RASPA-1.0
_audit_creation_date 2023-6-4
_audit_author_name 'Poobodin Mano'

_cell_length_a    24.4434
_cell_length_b    27.3706
_cell_length_c    37.6529
_cell_angle_alpha 89.9988
_cell_angle_beta  89.9988
_cell_angle_gamma 93.6753
_cell_volume      25139.1

_symmetry_cell_setting          triclinic
_symmetry_space_group_name_Hall 'P 1'
_symmetry_space_group_name_H-M  'P 1'
_symmetry_Int_Tables_number     1

_symmetry_equiv_pos_as_xyz 'x,y,z'

loop_
_atom_site_label
_atom_site_type_symbol
_atom_site_fract_x
_atom_site_fract_y
_atom_site_fract_z
_atom_site_charge
C1       C      0.062130000000     0.889700000000     0.990470000000     0.409924   
C2       C      0.975120000000     0.063570000000     0.999510000000     0.412899   
C3       C      0.119340000000     0.019330000000     0.981860000000     0.40407    
C4       C      0.921190000000     0.936450000000     0.007950000000     0.421788   
C5       C      0.097870000000     0.896850000000     0.533550000000     0.410931   
C6       C      0.021720000000     0.075470000000     0.538860000000     0.410738   
C7       C      0.162300000000     0.024680000000     0.541530000000     0.406472   
C8       C      0.958230000000     0.946690000000     0.531360000000     0.406553   
C9       C      0.549730000000     0.472590000000     0.941820000000     0.482817   
C10      C      0.500190000000     0.486580000000     0.073040000000     0.47784    
C11      C      0.599960000000     0.423740000000     0.022530000000     0.474413   
C12      C      0.447960000000     0.536580000000     0.993080000000     0.469357   
C13      C      0.558500000000     0.473940000000     0.439470000000     0.473978   
C14      C      0.560150000000     0.490930000000     0.573240000000     0.49479    
C15      C      0.635680000000     0.427580000000     0.509040000000     0.465927   
C16      C      0.477810000000     0.540540000000     0.503740000000     0.474457   
C17      C      0.551960000000     0.428120000000     0.847250000000    -0.0309016  
C18      C      0.578170000000     0.532690000000     0.667950000000    -0.0297685  
C19      C      0.530020000000     0.448430000000     0.627950000000    -0.0445256  
C20      C      0.592740000000     0.528700000000     0.628670000000    -0.00287591 
C21      C      0.605910000000     0.457190000000     0.739820000000    -0.0518345  
C22      C      0.528350000000     0.507020000000     0.777740000000    -0.052014   
C23      C      0.567860000000     0.483660000000     0.721380000000     0.0625962  
C24      C      0.520380000000     0.458030000000     0.667500000000    -0.0141573  
C25      C      0.566380000000     0.480420000000     0.796190000000     0.0629075  
C26      C      0.612930000000     0.501570000000     0.851470000000    -0.0533235  
C27      C      0.605240000000     0.455360000000     0.776870000000    -0.0555388  
C28      C      0.614130000000     0.494300000000     0.892530000000     0.0962334  
C29      C      0.531970000000     0.430370000000     0.885380000000     0.00473355 
C30      C      0.528820000000     0.508600000000     0.740610000000    -0.0547867  
C31      C      0.538960000000     0.520600000000     0.163660000000    -0.0323964  
C32      C      0.507970000000     0.443610000000     0.349690000000    -0.0316927  
C33      C      0.602860000000     0.495940000000     0.382020000000    -0.00379291 
C34      C      0.528920000000     0.427290000000     0.385800000000    -0.00187525 
C35      C      0.562860000000     0.449770000000     0.265140000000    -0.0524563  
C36      C      0.483970000000     0.515760000000     0.248440000000    -0.051979   
C37      C      0.538030000000     0.475070000000     0.292460000000     0.0630594  
C38      C      0.579080000000     0.509900000000     0.346120000000    -0.0300492  
C39      C      0.508790000000     0.490430000000     0.221100000000     0.0626335  
C40      C      0.467390000000     0.455150000000     0.167800000000    -0.0560324  
C41      C      0.548510000000     0.457260000000     0.229730000000    -0.0547693  
C42      C      0.445220000000     0.467670000000     0.130810000000     0.0973667  
C43      C      0.518450000000     0.535360000000     0.127140000000    -0.0040609  
C44      C      0.498340000000     0.508250000000     0.283860000000    -0.0547638  
C45      C      0.202210000000     0.809320000000     0.549400000000    -0.0316349  
C46      C      0.335560000000     0.582880000000     0.509170000000    -0.0305526  
C47      C      0.447750000000     0.624710000000     0.501560000000    -0.00367664 
C48      C      0.379350000000     0.551290000000     0.493620000000    -0.00391543 
C49      C      0.300270000000     0.707430000000     0.485930000000    -0.0519357  
C50      C      0.229910000000     0.694110000000     0.544020000000    -0.0521774  
C51      C      0.305800000000     0.667250000000     0.508480000000     0.0625156  
C52      C      0.401150000000     0.651870000000     0.517950000000    -0.0302836  
C53      C      0.223640000000     0.733650000000     0.520990000000     0.0619427  
C54      C      0.151170000000     0.782100000000     0.496810000000    -0.0557308  
C55      C      0.260510000000     0.740850000000     0.492390000000    -0.0543111  
C56      C      0.101790000000     0.810920000000     0.507840000000     0.0944582  
C57      C      0.154270000000     0.837980000000     0.562520000000    -0.0064478  
C58      C      0.271100000000     0.661690000000     0.538330000000    -0.0548674  
C59      C      0.719340000000     0.629230000000     0.529150000000    -0.0232776  
C60      C      0.859630000000     0.867870000000     0.487380000000    -0.0321514  
C61      C      0.878460000000     0.902230000000     0.559860000000    -0.00497725 
C62      C      0.876610000000     0.921630000000     0.494850000000    -0.0035903  
C63      C      0.751080000000     0.787210000000     0.520950000000    -0.0531522  
C64      C      0.811730000000     0.713050000000     0.492760000000    -0.0512182  
C65      C      0.805940000000     0.797590000000     0.511720000000     0.0644857  
C66      C      0.862520000000     0.848730000000     0.551010000000    -0.0305953  
C67      C      0.756390000000     0.702980000000     0.501280000000     0.0625522  
C68      C      0.683460000000     0.655540000000     0.471400000000    -0.0481595  
C69      C      0.726590000000     0.740320000000     0.516300000000    -0.0544509  
C70      C      0.654060000000     0.604050000000     0.466720000000     0.0888188  
C71      C      0.692940000000     0.578110000000     0.522430000000    -0.0182263  
C72      C      0.836730000000     0.759810000000     0.498390000000    -0.0557766  
C73      C      0.913180000000     0.157940000000     0.556560000000    -0.0314722  
C74      C      0.778040000000     0.384740000000     0.516450000000    -0.0314775  
C75      C      0.665260000000     0.343340000000     0.511520000000    -0.0021066  
C76      C      0.734150000000     0.415820000000     0.500440000000    -0.00342451 
C77      C      0.814500000000     0.260790000000     0.495160000000    -0.0518417  
C78      C      0.882290000000     0.274180000000     0.554530000000    -0.0527403  
C79      C      0.807240000000     0.300410000000     0.517930000000     0.0614911  
C80      C      0.712280000000     0.316810000000     0.528040000000    -0.0316925  
C81      C      0.890500000000     0.235360000000     0.531200000000     0.062193   
C82      C      0.967640000000     0.192600000000     0.507540000000    -0.0556452  
C83      C      0.854940000000     0.228070000000     0.501940000000    -0.0549247  
C84      C      0.017440000000     0.164500000000     0.518870000000     0.0947801  
C85      C      0.961380000000     0.129540000000     0.569740000000    -0.00707148 
C86      C      0.840580000000     0.305960000000     0.548410000000    -0.0545773  
C87      C      0.434340000000     0.307660000000     0.498430000000    -0.0210754  
C88      C      0.269600000000     0.105220000000     0.580090000000    -0.0300131  
C89      C      0.248440000000     0.052200000000     0.511660000000    -0.00574634 
C90      C      0.241650000000     0.053130000000     0.578870000000    -0.00484199 
C91      C      0.297650000000     0.212500000000     0.533150000000    -0.0521312  
C92      C      0.407930000000     0.209210000000     0.552290000000    -0.0525295  
C93      C      0.317600000000     0.168330000000     0.544440000000     0.0650845  
C94      C      0.297840000000     0.087900000000     0.518870000000    -0.0281351  
C95      C      0.388210000000     0.253270000000     0.540470000000     0.0631347  
C96      C      0.411520000000     0.337610000000     0.557370000000    -0.0439109  
C97      C      0.332570000000     0.254710000000     0.531020000000    -0.0538323  
C98      C      0.456610000000     0.379480000000     0.553460000000     0.0797412  
C99      C      0.479490000000     0.348440000000     0.494860000000    -0.0264714  
C100     C      0.373020000000     0.166890000000     0.554220000000    -0.0562205  
C101     C      0.129870000000     0.781250000000     0.952050000000    -0.0307423  
C102     C      0.314320000000     0.592630000000     0.000260000000    -0.0306917  
C103     C      0.421510000000     0.615350000000     0.968240000000    -0.0033815  
C104     C      0.349280000000     0.550760000000     0.988730000000    -0.00457698 
C105     C      0.234070000000     0.662440000000     0.962470000000    -0.0517648  
C106     C      0.253150000000     0.749100000000     0.000880000000    -0.0519236  
C107     C      0.284410000000     0.671050000000     0.980030000000     0.0620455  
C108     C      0.382750000000     0.654220000000     0.979800000000    -0.0310049  
C109     C      0.203390000000     0.741010000000     0.982550000000     0.0612835  
C110     C      0.127430000000     0.770920000000     0.015330000000    -0.0524935  
C111     C      0.193530000000     0.696210000000     0.964320000000    -0.0536617  
C112     C      0.089220000000     0.813740000000     0.020160000000     0.0930465  
C113     C      0.100240000000     0.828660000000     0.952120000000     0.000756815
C114     C      0.292810000000     0.714310000000     0.000290000000    -0.0540694  
C115     C      0.782630000000     0.872850000000     0.994470000000    -0.0284204  
C116     C      0.665460000000     0.633050000000     0.051540000000    -0.0229458  
C117     C      0.599920000000     0.613780000000     0.989040000000    -0.0214081  
C118     C      0.620390000000     0.591760000000     0.049920000000    -0.0184982  
C119     C      0.670910000000     0.759830000000     0.036660000000    -0.0520102  
C120     C      0.781840000000     0.752960000000     0.020490000000    -0.0521855  
C121     C      0.690670000000     0.714180000000     0.028870000000     0.0633153  
C122     C      0.645320000000     0.654580000000     0.990060000000    -0.0213285  
C123     C      0.761870000000     0.798700000000     0.027560000000     0.0659577  
C124     C      0.805990000000     0.869630000000     0.056850000000    -0.0515063  
C125     C      0.706120000000     0.801960000000     0.035950000000    -0.0563561  
C126     C      0.848550000000     0.913590000000     0.051900000000     0.0964628  
C127     C      0.831980000000     0.906660000000     0.984140000000     0.0034992  
C128     C      0.746600000000     0.710900000000     0.020980000000    -0.0537763  
C129     C      0.918920000000     0.173010000000     0.042300000000    -0.0312259  
C130     C      0.677280000000     0.312390000000     0.016420000000    -0.0324492  
C131     C      0.693070000000     0.410960000000     0.045560000000    -0.000977619
C132     C      0.627580000000     0.338890000000     0.029180000000    -0.000824763
C133     C      0.775040000000     0.256630000000     0.055010000000    -0.051516   
C134     C      0.847400000000     0.269310000000     0.997890000000    -0.0505502  
C135     C      0.770360000000     0.296630000000     0.032190000000     0.062926   
C136     C      0.740180000000     0.380750000000     0.032940000000    -0.032369   
C137     C      0.852030000000     0.229180000000     0.020670000000     0.0619149  
C138     C      0.863640000000     0.153040000000     0.990770000000    -0.0548241  
C139     C      0.814640000000     0.222790000000     0.049100000000    -0.0536618  
C140     C      0.905630000000     0.119230000000     0.975240000000     0.0955159  
C141     C      0.964820000000     0.141620000000     0.029720000000    -0.00557805 
C142     C      0.806580000000     0.302270000000     0.003120000000    -0.0546266  
C143     C      0.410170000000     0.300670000000     0.017210000000    -0.0189372  
C144     C      0.204360000000     0.117970000000     0.949700000000    -0.0303549  
C145     C      0.214310000000     0.040720000000     0.002050000000    -0.00603989 
C146     C      0.183950000000     0.065160000000     0.941480000000    -0.00641564 
C147     C      0.326050000000     0.178810000000     0.965620000000    -0.0521278  
C148     C      0.275740000000     0.247880000000     0.007150000000    -0.0524243  
C149     C      0.274680000000     0.166820000000     0.980700000000     0.0634794  
C150     C      0.234510000000     0.093650000000     0.009110000000    -0.0301776  
C151     C      0.328110000000     0.259150000000     0.993270000000     0.0650337  
C152     C      0.357170000000     0.339110000000     0.970820000000    -0.0451952  
C153     C      0.352380000000     0.224810000000     0.971360000000    -0.0552637  
C154     C      0.384870000000     0.389710000000     0.981180000000     0.0868272  
C155     C      0.435420000000     0.350790000000     0.027740000000    -0.0272791  
C156     C      0.248720000000     0.202330000000     0.000560000000    -0.0543645  
Cu1      Cu     0.010760000000     0.976420000000     0.962780000000     0.863485   
Cu2      Cu     0.030160000000     0.978520000000     0.027040000000     0.85249    
Cu3      Cu     0.062680000000     0.989050000000     0.503750000000     0.869215   
Cu4      Cu     0.057410000000     0.983310000000     0.568950000000     0.841526   
Cu5      Cu     0.562400000000     0.520160000000     0.009600000000     1.20226    
Cu6      Cu     0.485670000000     0.439560000000     0.004150000000     1.18477    
Cu7      Cu     0.594720000000     0.525810000000     0.504560000000     1.19095    
Cu8      Cu     0.519240000000     0.443410000000     0.508680000000     1.2372     
H1       H      0.498680000000     0.528960000000     0.726930000000     0.0439839  
H2       H      0.519010000000     0.408900000000     0.831080000000     0.0412184  
H3       H      0.614360000000     0.541520000000     0.845680000000     0.0456677  
H4       H      0.557900000000     0.417900000000     0.626060000000     0.053813   
H5       H      0.488760000000     0.440720000000     0.884970000000     0.0581312  
H6       H      0.612720000000     0.553330000000     0.681720000000     0.0360794  
H7       H      0.511350000000     0.422140000000     0.680900000000     0.0392151  
H8       H      0.590600000000     0.565360000000     0.616150000000     0.0407772  
H9       H      0.497990000000     0.526180000000     0.792210000000     0.0491753  
H10      H      0.532200000000     0.393420000000     0.897670000000     0.0518894  
H11      H      0.635900000000     0.437580000000     0.725350000000     0.0473328  
H12      H      0.588920000000     0.406490000000     0.845620000000     0.0521057  
H13      H      0.488760000000     0.433080000000     0.616210000000     0.155487   
H14      H      0.616630000000     0.531910000000     0.904100000000     0.0339588  
H15      H      0.541010000000     0.553910000000     0.670800000000     0.039048   
H16      H      0.483760000000     0.479880000000     0.670650000000     0.0436946  
H17      H      0.634720000000     0.434120000000     0.790420000000     0.0464737  
H18      H      0.650730000000     0.487930000000     0.839490000000     0.054973   
H19      H      0.636030000000     0.518740000000     0.626440000000     0.0376573  
H20      H      0.478480000000     0.528210000000     0.304490000000     0.0449555  
H21      H      0.557550000000     0.553910000000     0.177080000000     0.037038   
H22      H      0.432620000000     0.440000000000     0.184420000000     0.0533337  
H23      H      0.637900000000     0.472810000000     0.377200000000     0.0385403  
H24      H      0.489470000000     0.564710000000     0.130660000000     0.0376617  
H25      H      0.489110000000     0.410900000000     0.335680000000     0.0375946  
H26      H      0.612950000000     0.526490000000     0.329420000000     0.0408754  
H27      H      0.493180000000     0.413460000000     0.401990000000     0.0412219  
H28      H      0.453390000000     0.541380000000     0.242210000000     0.0481179  
H29      H      0.554420000000     0.551530000000     0.112320000000     0.0393013  
H30      H      0.593400000000     0.424110000000     0.271370000000     0.0472887  
H31      H      0.571360000000     0.494170000000     0.160240000000     0.0409705  
H32      H      0.619260000000     0.529700000000     0.395660000000     0.056199   
H33      H      0.413320000000     0.494290000000     0.135550000000     0.0307306  
H34      H      0.475660000000     0.469940000000     0.353870000000     0.0415546  
H35      H      0.548560000000     0.537870000000     0.350330000000     0.0476793  
H36      H      0.568370000000     0.437210000000     0.209170000000     0.0439222  
H37      H      0.497460000000     0.426460000000     0.165170000000     0.0592175  
H38      H      0.555580000000     0.396370000000     0.381600000000     0.0372057  
H39      H      0.275280000000     0.632380000000     0.557170000000     0.0439832  
H40      H      0.225040000000     0.797040000000     0.573020000000     0.0360068  
H41      H      0.136050000000     0.749230000000     0.481410000000     0.0533429  
H42      H      0.453480000000     0.636850000000     0.473540000000     0.0526799  
H43      H      0.129040000000     0.814540000000     0.581240000000     0.0406895  
H44      H      0.295170000000     0.570890000000     0.497370000000     0.0392331  
H45      H      0.409990000000     0.691770000000     0.513290000000     0.0378262  
H46      H      0.371700000000     0.513160000000     0.503480000000     0.0519792  
H47      H      0.203040000000     0.688750000000     0.566750000000     0.0464896  
H48      H      0.171380000000     0.870600000000     0.577440000000     0.0402041  
H49      H      0.327620000000     0.713220000000     0.463480000000     0.0483292  
H50      H      0.230680000000     0.833710000000     0.533220000000     0.0422474  
H51      H      0.486160000000     0.635400000000     0.516240000000     0.0518137  
H52      H      0.074400000000     0.784640000000     0.523280000000     0.0296182  
H53      H      0.333450000000     0.576420000000     0.538340000000     0.0432085  
H54      H      0.399620000000     0.645610000000     0.547180000000     0.0416009  
H55      H      0.258750000000     0.771990000000     0.474880000000     0.0452571  
H56      H      0.178300000000     0.805750000000     0.479320000000     0.060749   
H57      H      0.374540000000     0.550240000000     0.464260000000     0.0409079  
H58      H      0.879820000000     0.766320000000     0.492290000000     0.0491577  
H59      H      0.757970000000     0.625710000000     0.544310000000     0.0342331  
H60      H      0.697310000000     0.669550000000     0.444930000000     0.0587742  
H61      H      0.840450000000     0.921100000000     0.565540000000     0.0374925  
H62      H      0.721770000000     0.555220000000     0.508050000000     0.035985   
H63      H      0.832930000000     0.865770000000     0.463420000000     0.0409267  
H64      H      0.838200000000     0.832420000000     0.573560000000     0.0364174  
H65      H      0.901090000000     0.937090000000     0.472150000000     0.0493234  
H66      H      0.835530000000     0.684510000000     0.481950000000     0.0482248  
H67      H      0.683020000000     0.560410000000     0.548330000000     0.0342894  
H68      H      0.727410000000     0.815570000000     0.532170000000     0.0466895  
H69      H      0.691020000000     0.650000000000     0.545690000000     0.0400333  
H70      H      0.904070000000     0.903780000000     0.584260000000     0.0433535  
H71      H      0.681660000000     0.580380000000     0.451870000000     0.0247125  
H72      H      0.897190000000     0.848320000000     0.481710000000     0.0524975  
H73      H      0.900190000000     0.828270000000     0.547900000000     0.0460906  
H74      H      0.684330000000     0.733390000000     0.524390000000     0.0443219  
H75      H      0.653660000000     0.680800000000     0.482020000000     0.0626148  
H76      H      0.838850000000     0.942070000000     0.496870000000     0.0383234  
H77      H      0.834890000000     0.334840000000     0.567380000000     0.0422349  
H78      H      0.887750000000     0.166810000000     0.579930000000     0.0365091  
H79      H      0.982590000000     0.227520000000     0.494600000000     0.0538652  
H80      H      0.657730000000     0.329100000000     0.484170000000     0.0383579  
H81      H      0.983890000000     0.151610000000     0.590530000000     0.0415209  
H82      H      0.818170000000     0.395740000000     0.503900000000     0.0372547  
H83      H      0.703040000000     0.276710000000     0.524680000000     0.035708   
H84      H      0.742170000000     0.454340000000     0.509390000000     0.039018   
H85      H      0.908180000000     0.279580000000     0.577720000000     0.0468067  
H86      H      0.944400000000     0.094990000000     0.582260000000     0.0416598  
H87      H      0.788190000000     0.254990000000     0.472210000000     0.0467074  
H88      H      0.887240000000     0.134510000000     0.538160000000     0.0422666  
H89      H      0.627490000000     0.334270000000     0.527320000000     0.0389558  
H90      H      0.041790000000     0.189800000000     0.536910000000     0.0312878  
H91      H      0.781160000000     0.392810000000     0.545380000000     0.0377364  
H92      H      0.714920000000     0.324720000000     0.557040000000     0.0395833  
H93      H      0.858390000000     0.197410000000     0.484160000000     0.0450006  
H94      H      0.943260000000     0.170200000000     0.487790000000     0.0608031  
H95      H      0.738470000000     0.415630000000     0.471050000000     0.0378013  
H96      H      0.389310000000     0.132950000000     0.562740000000     0.0421054  
H97      H      0.446960000000     0.275180000000     0.483450000000     0.0339762  
H98      H      0.407960000000     0.327070000000     0.585860000000     0.0582013  
H99      H      0.223130000000     0.067670000000     0.490360000000     0.0552577  
H100     H      0.519010000000     0.335010000000     0.504130000000     0.0393256  
H101     H      0.241830000000     0.129700000000     0.593850000000     0.0448722  
H102     H      0.311520000000     0.105110000000     0.493300000000     0.0387675  
H103     H      0.273700000000     0.026520000000     0.582620000000     0.0327968  
H104     H      0.450740000000     0.207520000000     0.559310000000     0.0458885  
H105     H      0.483800000000     0.358570000000     0.466430000000     0.0360284  
H106     H      0.255140000000     0.213890000000     0.525320000000     0.0545164  
H107     H      0.395890000000     0.319910000000     0.486400000000     0.039613   
H108     H      0.262590000000     0.016920000000     0.501690000000     0.037535   
H109     H      0.495360000000     0.366060000000     0.564340000000     0.0302456  
H110     H      0.307710000000     0.104370000000     0.596200000000     0.0338561  
H111     H      0.332320000000     0.067840000000     0.529830000000     0.0358739  
H112     H      0.316430000000     0.288100000000     0.521310000000     0.0458041  
H113     H      0.371410000000     0.350200000000     0.548390000000     0.0609789  
H114     H      0.212690000000     0.048250000000     0.601540000000     0.0438257  
H115     H      0.330140000000     0.722070000000     0.015190000000     0.042426   
H116     H      0.156150000000     0.780820000000     0.927900000000     0.0372246  
H117     H      0.152670000000     0.768390000000     0.039820000000     0.0471176  
H118     H      0.417780000000     0.610410000000     0.939010000000     0.04022    
H119     H      0.127790000000     0.858110000000     0.940050000000     0.0408399  
H120     H      0.270450000000     0.579140000000     0.998730000000     0.0394498  
H121     H      0.390210000000     0.686970000000     0.962530000000     0.0364795  
H122     H      0.343210000000     0.520280000000     0.008160000000     0.0515508  
H123     H      0.261090000000     0.782560000000     0.015890000000     0.0470887  
H124     H      0.063670000000     0.824240000000     0.934550000000     0.0463653  
H125     H      0.226130000000     0.629080000000     0.947330000000     0.0479219  
H126     H      0.098620000000     0.749860000000     0.950210000000     0.0442046  
H127     H      0.464350000000     0.629240000000     0.973800000000     0.0388161  
H128     H      0.107880000000     0.837390000000     0.041650000000     0.0378336  
H129     H      0.323560000000     0.602810000000     0.028370000000     0.0427117  
H130     H      0.392730000000     0.664860000000     0.007710000000     0.0385088  
H131     H      0.155090000000     0.687280000000     0.950920000000     0.0441365  
H132     H      0.102990000000     0.735200000000     0.012980000000     0.0585752  
H133     H      0.334450000000     0.536940000000     0.962450000000     0.0536116  
H134     H      0.762690000000     0.676110000000     0.014380000000     0.0459221  
H135     H      0.769570000000     0.850520000000     0.970840000000     0.0390341  
H136     H      0.820690000000     0.845260000000     0.078030000000     0.0514433  
H137     H      0.560540000000     0.628940000000     0.996820000000     0.0398113  
H138     H      0.854840000000     0.888390000000     0.962860000000     0.0498609  
H139     H      0.667940000000     0.647470000000     0.079170000000     0.0350925  
H140     H      0.633430000000     0.684840000000     0.972490000000     0.0346173  
H141     H      0.632380000000     0.561090000000     0.066940000000     0.0347624  
H142     H      0.824590000000     0.750170000000     0.013700000000     0.056867   
H143     H      0.817870000000     0.941030000000     0.972540000000     0.0592969  
H144     H      0.627840000000     0.762800000000     0.042410000000     0.0464694  
H145     H      0.747680000000     0.894790000000     0.002220000000     0.0490498  
H146     H      0.595900000000     0.599280000000     0.961570000000     0.0390848  
H147     H      0.883390000000     0.906290000000     0.069840000000     0.0435703  
H148     H      0.705360000000     0.617990000000     0.044700000000     0.0402349  
H149     H      0.683980000000     0.640450000000     0.979730000000     0.0421902  
H150     H      0.689660000000     0.837060000000     0.041040000000     0.0458929  
H151     H      0.766100000000     0.882420000000     0.066190000000     0.0562764  
H152     H      0.581310000000     0.605120000000     0.060110000000     0.0367048  
H153     H      0.803100000000     0.331550000000     0.984150000000     0.0473648  
H154     H      0.937250000000     0.203420000000     0.058940000000     0.0387383  
H155     H      0.840680000000     0.168310000000     0.968200000000     0.0529928  
H156     H      0.690470000000     0.408410000000     0.074990000000     0.0377514  
H157     H      0.997870000000     0.166230000000     0.017850000000     0.0380064  
H158     H      0.667600000000     0.272290000000     0.019430000000     0.0388776  
H159     H      0.777530000000     0.391770000000     0.048630000000     0.0391812  
H160     H      0.592400000000     0.328610000000     0.011380000000     0.0440369  
H161     H      0.874480000000     0.274080000000     0.975220000000     0.0487931  
H162     H      0.982710000000     0.124310000000     0.053390000000     0.0473692  
H163     H      0.746640000000     0.250870000000     0.076920000000     0.0481654  
H164     H      0.890350000000     0.149750000000     0.059150000000     0.047581   
H165     H      0.703040000000     0.450040000000     0.038730000000     0.0473841  
H166     H      0.928670000000     0.140540000000     0.954210000000     0.0346982  
H167     H      0.684780000000     0.320200000000     0.987720000000     0.0479593  
H168     H      0.748540000000     0.389600000000     0.004530000000     0.0476534  
H169     H      0.815060000000     0.191370000000     0.066460000000     0.046937   
H170     H      0.833320000000     0.131340000000     0.007560000000     0.0647277  
H171     H      0.616460000000     0.325780000000     0.056340000000     0.0398741  
H172     H      0.208150000000     0.194620000000     0.011480000000     0.0439466  
H173     H      0.406510000000     0.277240000000     0.041360000000     0.0393735  
H174     H      0.314620000000     0.344210000000     0.961660000000     0.0589774  
H175     H      0.249200000000     0.020900000000     0.991540000000     0.0385015  
H176     H      0.409290000000     0.366410000000     0.048230000000     0.0670831  
H177     H      0.218470000000     0.135870000000     0.924480000000     0.0379371  
H178     H      0.270630000000     0.093860000000     0.027110000000     0.038119   
H179     H      0.148340000000     0.065490000000     0.923140000000     0.0442772  
H180     H      0.256050000000     0.274400000000     0.023300000000     0.0505046  
H181     H      0.476840000000     0.346740000000     0.038950000000     0.0480219  
H182     H      0.345840000000     0.152230000000     0.949590000000     0.0472388  
H183     H      0.438230000000     0.283930000000     0.998110000000     0.0392116  
H184     H      0.200960000000     0.022880000000     0.027400000000     0.0438849  
H185     H      0.359160000000     0.406650000000     0.001690000000     0.0345336  
H186     H      0.169890000000     0.138180000000     0.960500000000     0.0420467  
H187     H      0.201260000000     0.112250000000     0.022790000000     0.042115   
H188     H      0.391950000000     0.233160000000     0.959170000000     0.0447516  
H189     H      0.379900000000     0.322710000000     0.948640000000     0.0618125  
H190     H      0.217290000000     0.046660000000     0.927850000000     0.0391668  
N1       N      0.564670000000     0.466420000000     0.907080000000    -0.17785    
N2       N      0.563610000000     0.478270000000     0.834520000000    -0.107107   
N3       N      0.569270000000     0.483450000000     0.683070000000    -0.113975   
N4       N      0.557440000000     0.491570000000     0.609430000000    -0.175724   
N5       N      0.664790000000     0.470970000000     0.902530000000    -0.0324716  
N6       N      0.489570000000     0.493140000000     0.108790000000    -0.180322   
N7       N      0.492920000000     0.499270000000     0.184830000000    -0.110883   
N8       N      0.553770000000     0.465960000000     0.328680000000    -0.112894   
N9       N      0.561360000000     0.467680000000     0.403460000000    -0.179073   
N10      N      0.417760000000     0.423070000000     0.115750000000    -0.0317871  
N11      N      0.119600000000     0.851820000000     0.532470000000    -0.169075   
N12      N      0.181170000000     0.766820000000     0.528500000000    -0.110642   
N13      N      0.349180000000     0.634930000000     0.501170000000    -0.111804   
N14      N      0.435600000000     0.571120000000     0.501980000000    -0.175975   
N15      N      0.071220000000     0.824530000000     0.475930000000    -0.0320626  
N16      N      0.642660000000     0.582330000000     0.501910000000    -0.233128   
N17      N      0.731570000000     0.654360000000     0.495150000000    -0.112857   
N18      N      0.829720000000     0.846280000000     0.518220000000    -0.113019   
N19      N      0.906230000000     0.925520000000     0.528920000000    -0.166891   
N20      N      0.602730000000     0.606360000000     0.446410000000    -0.0310479  
N21      N      0.999340000000     0.120280000000     0.540270000000    -0.168479   
N22      N      0.933940000000     0.203210000000     0.538760000000    -0.110652   
N23      N      0.763740000000     0.332380000000     0.510100000000    -0.112087   
N24      N      0.677850000000     0.396850000000     0.509540000000    -0.179245   
N25      N      0.052110000000     0.156160000000     0.487650000000    -0.031855   
N26      N      0.465570000000     0.391440000000     0.515480000000    -0.233759   
N27      N      0.426410000000     0.295180000000     0.536200000000    -0.114658   
N28      N      0.281060000000     0.124990000000     0.544170000000    -0.108642   
N29      N      0.215330000000     0.043340000000     0.544080000000    -0.164217   
N30      N      0.443850000000     0.424020000000     0.573360000000    -0.0203597  
N31      N      0.083420000000     0.844570000000     0.987820000000    -0.164709   
N32      N      0.163360000000     0.778120000000     0.984310000000    -0.10743    
N33      N      0.325250000000     0.634930000000     0.976630000000    -0.111484   
N34      N      0.407670000000     0.567640000000     0.985510000000    -0.176685   
N35      N      0.035270000000     0.793220000000     0.032640000000    -0.0319211  
N36      N      0.868690000000     0.918530000000     0.014610000000    -0.161703   
N37      N      0.798650000000     0.841520000000     0.023770000000    -0.104957   
N38      N      0.652190000000     0.672280000000     0.026810000000    -0.116318   
N39      N      0.613270000000     0.574290000000     0.013270000000    -0.226876   
N40      N      0.825480000000     0.959160000000     0.064160000000    -0.0319401  
N41      N      0.946190000000     0.104890000000     0.002660000000    -0.165785   
N42      N      0.890630000000     0.192940000000     0.011550000000    -0.109513   
N43      N      0.725580000000     0.328080000000     0.037780000000    -0.111608   
N44      N      0.639890000000     0.392420000000     0.030450000000    -0.17685    
N45      N      0.873050000000     0.077680000000     0.958830000000    -0.0316664  
N46      N      0.439230000000     0.382780000000     0.996550000000    -0.228168   
N47      N      0.355500000000     0.305940000000     0.001640000000    -0.112743   
N48      N      0.249950000000     0.118220000000     0.975330000000    -0.113369   
N49      N      0.170640000000     0.039790000000     0.975120000000    -0.168226   
N50      N      0.390070000000     0.423110000000     0.950560000000    -0.0300316  
O1       O      0.045940000000     0.911000000000     0.962290000000    -0.396148   
O2       O      0.976980000000     0.041510000000     0.969600000000    -0.37374    
O3       O      0.085690000000     0.011100000000     0.956110000000    -0.401054   
O4       O      0.937310000000     0.942760000000     0.975740000000    -0.389117   
O5       O      0.953360000000     0.948140000000     0.033910000000    -0.381845   
O6       O      0.105350000000     0.008420000000     0.013860000000    -0.401412   
O7       O      0.998580000000     0.046060000000     0.026880000000    -0.387547   
O8       O      0.058560000000     0.910520000000     0.020890000000    -0.381009   
O9       O      0.088400000000     0.919810000000     0.504780000000    -0.36856    
O10      O      0.036230000000     0.057670000000     0.509110000000    -0.367511   
O11      O      0.141110000000     0.016150000000     0.510780000000    -0.390475   
O12      O      0.983830000000     0.961200000000     0.503160000000    -0.390904   
O13      O      0.981310000000     0.951290000000     0.561870000000    -0.400063   
O14      O      0.134300000000     0.015470000000     0.569800000000    -0.398827   
O15      O      0.025260000000     0.050210000000     0.567460000000    -0.395662   
O16      O      0.089980000000     0.917060000000     0.563770000000    -0.397122   
O17      O      0.576350000000     0.503720000000     0.961060000000    -0.472643   
O18      O      0.534250000000     0.516550000000     0.057580000000    -0.489921   
O19      O      0.610970000000     0.469760000000     0.022520000000    -0.467822   
O20      O      0.497800000000     0.552950000000     0.994520000000    -0.481882   
O21      O      0.435590000000     0.491330000000     0.998370000000    -0.460708   
O22      O      0.551660000000     0.406620000000     0.015270000000    -0.474884   
O23      O      0.477050000000     0.451640000000     0.055120000000    -0.440433   
O24      O      0.509990000000     0.446330000000     0.955030000000    -0.461761   
O25      O      0.588050000000     0.507920000000     0.454540000000    -0.468566   
O26      O      0.585370000000     0.525130000000     0.555910000000    -0.479483   
O27      O      0.645840000000     0.473940000000     0.508550000000    -0.47446    
O28      O      0.527020000000     0.558300000000     0.502420000000    -0.465027   
O29      O      0.467900000000     0.494550000000     0.506270000000    -0.475234   
O30      O      0.586310000000     0.409510000000     0.508350000000    -0.479184   
O31      O      0.537590000000     0.455190000000     0.556930000000    -0.503817   
O32      O      0.527220000000     0.444990000000     0.457860000000    -0.489377   
O33      O      0.675160000000     0.478430000000     0.936880000000    -0.100686   
O34      O      0.658400000000     0.422780000000     0.897470000000    -0.112759   
O35      O      0.386970000000     0.434220000000     0.088100000000    -0.108629   
O36      O      0.454220000000     0.391660000000     0.105730000000    -0.112405   
O37      O      0.024380000000     0.843480000000     0.485060000000    -0.107758   
O38      O      0.100660000000     0.856960000000     0.456220000000    -0.0995028  
O39      O      0.570140000000     0.637180000000     0.461940000000    -0.112644   
O40      O      0.614170000000     0.623470000000     0.413950000000    -0.121974   
O41      O      0.098730000000     0.137460000000     0.497550000000    -0.101996   
O42      O      0.026290000000     0.125890000000     0.464550000000    -0.0994058  
O43      O      0.451730000000     0.417310000000     0.608790000000    -0.209192   
O44      O      0.391940000000     0.434520000000     0.568340000000    -0.113329   
O45      O      0.007980000000     0.828080000000     0.048010000000    -0.0993495  
O46      O      0.005600000000     0.776210000000     0.005090000000    -0.108689   
O47      O      0.865370000000     0.994550000000     0.066040000000    -0.0934929  
O48      O      0.788760000000     0.973350000000     0.040810000000    -0.104646   
O49      O      0.897720000000     0.061850000000     0.929870000000    -0.10253    
O50      O      0.864720000000     0.040500000000     0.981430000000    -0.0904705  
O51      O      0.412920000000     0.400950000000     0.923350000000    -0.113803   
O52      O      0.340300000000     0.434500000000     0.940340000000    -0.118268   


