data_structure

_audit_creation_method RASPA-1.0
_audit_creation_date 2023-5-23
_audit_author_name 'Poobodin Mano'

_cell_length_a    27.2531
_cell_length_b    28.3524
_cell_length_c    28.7425
_cell_angle_alpha 89.9998
_cell_angle_beta  89.9991
_cell_angle_gamma 90.0049
_cell_volume      22209.1

_symmetry_cell_setting          triclinic
_symmetry_space_group_name_Hall 'P 1'
_symmetry_space_group_name_H-M  'P 1'
_symmetry_Int_Tables_number     1

_symmetry_equiv_pos_as_xyz 'x,y,z'

loop_
_atom_site_label
_atom_site_type_symbol
_atom_site_fract_x
_atom_site_fract_y
_atom_site_fract_z
_atom_site_charge
C1       C      0.028730000000     0.527010000000     0.908230000000     0.414005   
C2       C      0.976970000000     0.539440000000     0.085960000000     0.413888   
C3       C      0.987220000000     0.440610000000     0.999010000000     0.413017   
C4       C      0.018290000000     0.625780000000     0.995290000000     0.412694   
C5       C      0.978770000000     0.547270000000     0.408340000000     0.414331   
C6       C      0.027860000000     0.524010000000     0.585700000000     0.413816   
C7       C      0.978710000000     0.445110000000     0.491710000000     0.414053   
C8       C      0.028040000000     0.626090000000     0.502800000000     0.413406   
C9       C      0.019540000000     0.941210000000     0.088250000000     0.485784   
C10      C      0.989820000000     0.104390000000     0.021460000000     0.486581   
C11      C      0.006730000000     0.986720000000     0.972830000000     0.486979   
C12      C      0.009250000000     0.057010000000     0.135290000000     0.484482   
C13      C      0.035750000000     0.949730000000     0.558180000000     0.489034   
C14      C      0.991110000000     0.123420000000     0.559940000000     0.489411   
C15      C      0.011280000000     0.036810000000     0.470790000000     0.486396   
C16      C      0.015330000000     0.035810000000     0.647420000000     0.482532   
C17      C      0.451650000000     0.007120000000     0.092260000000     0.413203   
C18      C      0.537220000000     0.029020000000     0.927420000000     0.413694   
C19      C      0.582810000000     0.014190000000     0.049620000000     0.412651   
C20      C      0.406870000000     0.022060000000     0.969860000000     0.413889   
C21      C      0.509540000000     0.026480000000     0.416190000000     0.412788   
C22      C      0.518110000000     0.046140000000     0.599970000000     0.413319   
C23      C      0.418860000000     0.057680000000     0.509900000000     0.413523   
C24      C      0.608570000000     0.014710000000     0.506480000000     0.413688   
C25      C      0.505200000000     0.098990000000     0.753260000000    -0.0429541  
C26      C      0.531260000000     0.096500000000     0.668890000000    -0.019154   
C27      C      0.563230000000     0.083060000000     0.815520000000     0.0168035  
C28      C      0.541840000000     0.090430000000     0.719980000000     0.0148825  
C29      C      0.574590000000     0.080050000000     0.866690000000    -0.0198897  
C30      C      0.588860000000     0.076880000000     0.734770000000    -0.0414026  
C31      C      0.599450000000     0.073060000000     0.782200000000    -0.0441626  
C32      C      0.515800000000     0.095220000000     0.800700000000    -0.0411663  
C33      C      0.515090000000     0.052190000000     0.249190000000    -0.043803   
C34      C      0.516920000000     0.060180000000     0.336910000000    -0.0199279  
C35      C      0.438030000000     0.043140000000     0.207420000000     0.0192508  
C36      C      0.489800000000     0.053010000000     0.291760000000     0.0149812  
C37      C      0.410220000000     0.040330000000     0.162180000000    -0.0204306  
C38      C      0.438460000000     0.049000000000     0.291820000000    -0.0397445  
C39      C      0.412790000000     0.044010000000     0.250040000000    -0.046124   
C40      C      0.489380000000     0.047560000000     0.207340000000    -0.0399157  
C41      C      0.265610000000     0.106770000000     0.476730000000    -0.0395282  
C42      C      0.351960000000     0.116570000000     0.506720000000    -0.0180787  
C43      C      0.195100000000     0.114240000000     0.527960000000     0.026906   
C44      C      0.297220000000     0.117660000000     0.513750000000     0.0127639  
C45      C      0.140890000000     0.108540000000     0.536480000000    -0.040757   
C46      C      0.277420000000     0.127030000000     0.557890000000    -0.0400314  
C47      C      0.226710000000     0.125260000000     0.564950000000    -0.0454878  
C48      C      0.214920000000     0.104900000000     0.483810000000    -0.0494974  
C49      C      0.761980000000     0.963280000000     0.479830000000    -0.0402262  
C50      C      0.675170000000     0.955540000000     0.509150000000    -0.0185088  
C51      C      0.831680000000     0.958930000000     0.532350000000     0.0266565  
C52      C      0.729770000000     0.955240000000     0.517100000000     0.013405   
C53      C      0.885830000000     0.964430000000     0.541170000000    -0.0409556  
C54      C      0.748870000000     0.948880000000     0.562030000000    -0.0401205  
C55      C      0.799480000000     0.950730000000     0.569600000000    -0.0451641  
C56      C      0.812560000000     0.965340000000     0.487430000000    -0.0495172  
C57      C      0.247310000000     0.043700000000     0.933090000000    -0.0404733  
C58      C      0.336390000000     0.067730000000     0.937990000000    -0.0196515  
C59      C      0.188100000000     0.068870000000     0.991260000000     0.0277855  
C60      C      0.285120000000     0.066420000000     0.957570000000     0.0163845  
C61      C      0.135780000000     0.072170000000     0.007990000000    -0.0438689  
C62      C      0.274320000000     0.088980000000     0.999860000000    -0.0390276  
C63      C      0.226150000000     0.090130000000     0.016620000000    -0.0463418  
C64      C      0.199200000000     0.044780000000     0.949870000000    -0.0492472  
C65      C      0.729630000000     0.020210000000     0.124760000000    -0.0400415  
C66      C      0.653230000000     0.053820000000     0.087600000000    -0.0188003  
C67      C      0.810820000000     0.036920000000     0.093740000000     0.0280609  
C68      C      0.708030000000     0.046400000000     0.088710000000     0.0135215  
C69      C      0.865840000000     0.034680000000     0.097960000000    -0.0408131  
C70      C      0.738140000000     0.066750000000     0.054510000000    -0.0401594  
C71      C      0.789160000000     0.062100000000     0.057040000000    -0.0448078  
C72      C      0.780640000000     0.015410000000     0.127200000000    -0.0503032  
C73      C      0.051180000000     0.950550000000     0.816770000000    -0.0450919  
C74      C      0.052420000000     0.954910000000     0.904680000000    -0.0163619  
C75      C      0.057160000000     0.021270000000     0.769270000000     0.0131449  
C76      C      0.052430000000     0.977980000000     0.857460000000     0.0160157  
C77      C      0.060740000000     0.043830000000     0.721840000000    -0.0151085  
C78      C      0.055740000000     0.027270000000     0.853690000000    -0.0405489  
C79      C      0.057910000000     0.048780000000     0.809920000000    -0.0437768  
C80      C      0.053680000000     0.972020000000     0.773070000000    -0.0399069  
C81      C      0.970750000000     0.022540000000     0.264880000000    -0.0408459  
C82      C      0.964040000000     0.086740000000     0.204520000000    -0.0158015  
C83      C      0.968710000000     0.040200000000     0.347650000000     0.0120845  
C84      C      0.968390000000     0.070860000000     0.254380000000     0.0149698  
C85      C      0.965680000000     0.024110000000     0.397560000000    -0.014073   
C86      C      0.967330000000     0.103770000000     0.290910000000    -0.0451438  
C87      C      0.967450000000     0.088530000000     0.337170000000    -0.0406584  
C88      C      0.971080000000     0.007320000000     0.311160000000    -0.0436141  
C89      C      0.091240000000     0.776040000000     0.478260000000    -0.0438296  
C90      C      0.090440000000     0.689220000000     0.498050000000    -0.0192593  
C91      C      0.099400000000     0.835680000000     0.538500000000     0.0125553  
C92      C      0.094950000000     0.740270000000     0.511840000000     0.0152487  
C93      C      0.098300000000     0.886720000000     0.552850000000    -0.0136805  
C94      C      0.100840000000     0.752530000000     0.558830000000    -0.042666   
C95      C      0.102850000000     0.799910000000     0.572100000000    -0.0422021  
C96      C      0.093370000000     0.823420000000     0.491530000000    -0.0406876  
C97      C      0.916280000000     0.293680000000     0.482880000000    -0.0445913  
C98      C      0.917080000000     0.381240000000     0.499160000000    -0.0199555  
C99      C      0.924100000000     0.236410000000     0.545320000000     0.0125666  
C100     C      0.919330000000     0.330720000000     0.515160000000     0.0162035  
C101     C      0.927910000000     0.185950000000     0.561180000000    -0.0137881  
C102     C      0.925560000000     0.320280000000     0.562540000000    -0.0424106  
C103     C      0.928060000000     0.273440000000     0.577510000000    -0.0420964  
C104     C      0.918810000000     0.246850000000     0.497850000000    -0.0405656  
C105     C      0.103150000000     0.550070000000     0.720760000000    -0.0422338  
C106     C      0.089750000000     0.505610000000     0.645890000000    -0.0189465  
C107     C      0.095290000000     0.511530000000     0.795860000000     0.0144802  
C108     C      0.093560000000     0.507200000000     0.698100000000     0.0147453  
C109     C      0.092140000000     0.514610000000     0.848030000000    -0.0183907  
C110     C      0.084920000000     0.466480000000     0.724640000000    -0.0429553  
C111     C      0.085660000000     0.468660000000     0.773200000000    -0.0423257  
C112     C      0.103840000000     0.552260000000     0.769310000000    -0.0424883  
C113     C      0.901260000000     0.516650000000     0.225860000000    -0.0426214  
C114     C      0.913770000000     0.552320000000     0.146300000000    -0.0187609  
C115     C      0.912310000000     0.563100000000     0.296100000000     0.0144773  
C116     C      0.911330000000     0.556460000000     0.198450000000     0.0144911  
C117     C      0.916800000000     0.565610000000     0.348220000000    -0.0183378  
C118     C      0.921820000000     0.599630000000     0.220190000000    -0.0423225  
C119     C      0.922480000000     0.602900000000     0.268690000000    -0.0429147  
C120     C      0.901860000000     0.519930000000     0.274360000000    -0.042069   
C121     C      0.987870000000     0.832560000000     0.034490000000    -0.0378977  
C122     C      0.988220000000     0.863880000000     0.116900000000    -0.0156444  
C123     C      0.990010000000     0.748360000000     0.018330000000     0.016563   
C124     C      0.989240000000     0.823620000000     0.082570000000     0.0165281  
C125     C      0.988380000000     0.707990000000     0.984150000000    -0.0206243  
C126     C      0.990110000000     0.776690000000     0.098230000000    -0.0450454  
C127     C      0.990130000000     0.739410000000     0.066410000000    -0.0397093  
C128     C      0.988390000000     0.795270000000     0.002660000000    -0.0456907  
C129     C      0.942490000000     0.293260000000     0.949930000000    -0.0432316  
C130     C      0.931660000000     0.372670000000     0.988530000000    -0.0191568  
C131     C      0.933700000000     0.220300000000     0.993540000000     0.0125836  
C132     C      0.933630000000     0.319570000000     0.990450000000     0.015224   
C133     C      0.933220000000     0.167200000000     0.995250000000    -0.0137533  
C134     C      0.926100000000     0.295910000000     0.032760000000    -0.0436877  
C135     C      0.926310000000     0.246620000000     0.034320000000    -0.0409956  
C136     C      0.942660000000     0.243970000000     0.951480000000    -0.0423693  
Cu1      Cu     0.046030000000     0.526690000000     0.008820000000     0.848265   
Cu2      Cu     0.959610000000     0.539660000000     0.985360000000     0.848331   
Cu3      Cu     0.045810000000     0.525680000000     0.485220000000     0.848522   
Cu4      Cu     0.960860000000     0.545590000000     0.508830000000     0.849931   
Cu5      Cu     0.954900000000     0.015550000000     0.056410000000     1.20457    
Cu6      Cu     0.057550000000     0.029570000000     0.051030000000     1.20272    
Cu7      Cu     0.963240000000     0.024360000000     0.560350000000     1.21117    
Cu8      Cu     0.063650000000     0.048780000000     0.557890000000     1.19875    
Cu9      Cu     0.495300000000     0.974700000000     0.004660000000     0.84786    
Cu10     Cu     0.494130000000     0.061340000000     0.015270000000     0.846173   
Cu11     Cu     0.503480000000     0.993950000000     0.512930000000     0.849022   
Cu12     Cu     0.523980000000     0.078510000000     0.503270000000     0.848021   
H1       H      0.567250000000     0.003990000000     0.865950000000     0.102576   
H2       H      0.499410000000     0.120410000000     0.663480000000     0.0408063  
H3       H      0.563450000000     0.112950000000     0.651420000000     0.0449871  
H4       H      0.487180000000     0.102290000000     0.825900000000     0.042646   
H5       H      0.468550000000     0.109020000000     0.742550000000     0.0392391  
H6       H      0.614740000000     0.083940000000     0.872350000000     0.0367416  
H7       H      0.617460000000     0.069690000000     0.709570000000     0.0410686  
H8       H      0.636040000000     0.062840000000     0.792900000000     0.0389584  
H9       H      0.556690000000     0.109910000000     0.885160000000     0.0471405  
H10      H      0.513590000000     0.021460000000     0.667700000000     0.103154   
H11      H      0.421770000000     0.966920000000     0.145490000000     0.102059   
H12      H      0.557160000000     0.062730000000     0.331060000000     0.0386365  
H13      H      0.504730000000     0.094190000000     0.352360000000     0.0469347  
H14      H      0.509550000000     0.047770000000     0.174870000000     0.0479969  
H15      H      0.554650000000     0.055740000000     0.248250000000     0.0381201  
H16      H      0.370660000000     0.033890000000     0.169200000000     0.0352545  
H17      H      0.418240000000     0.050110000000     0.324260000000     0.0428781  
H18      H      0.373160000000     0.041350000000     0.251010000000     0.0385895  
H19      H      0.413160000000     0.074810000000     0.144000000000     0.0478734  
H20      H      0.499710000000     0.987760000000     0.355790000000     0.102491   
H21      H      0.148430000000     0.035820000000     0.537940000000     0.0907587  
H22      H      0.361460000000     0.130080000000     0.471510000000     0.041274   
H23      H      0.370820000000     0.139470000000     0.532590000000     0.0430701  
H24      H      0.191230000000     0.095460000000     0.455020000000     0.0404012  
H25      H      0.280270000000     0.098830000000     0.442590000000     0.0388933  
H26      H      0.128100000000     0.136500000000     0.560680000000     0.0448853  
H27      H      0.301260000000     0.134890000000     0.587030000000     0.0392545  
H28      H      0.212140000000     0.131730000000     0.599440000000     0.0425347  
H29      H      0.120030000000     0.112370000000     0.503490000000     0.0395897  
H30      H      0.345400000000     0.040350000000     0.514980000000     0.103101   
H31      H      0.878020000000     0.037150000000     0.542560000000     0.0901445  
H32      H      0.666420000000     0.936950000000     0.476100000000     0.0410065  
H33      H      0.655670000000     0.936740000000     0.537680000000     0.0449148  
H34      H      0.836740000000     0.972520000000     0.458360000000     0.0388541  
H35      H      0.747850000000     0.968760000000     0.445020000000     0.0386384  
H36      H      0.898250000000     0.936610000000     0.565700000000     0.0453817  
H37      H      0.724590000000     0.943130000000     0.591320000000     0.0398454  
H38      H      0.813540000000     0.946470000000     0.604600000000     0.0437078  
H39      H      0.906910000000     0.960140000000     0.508360000000     0.038748   
H40      H      0.682130000000     0.031810000000     0.501700000000     0.10223    
H41      H      0.140720000000     0.004900000000     0.036100000000     0.0910715  
H42      H      0.334090000000     0.070630000000     0.899480000000     0.0351871  
H43      H      0.356430000000     0.099160000000     0.951190000000     0.0471698  
H44      H      0.170470000000     0.027570000000     0.930100000000     0.0396833  
H45      H      0.254960000000     0.025730000000     0.900620000000     0.0376024  
H46      H      0.128780000000     0.108150000000     0.021780000000     0.0453631  
H47      H      0.303050000000     0.106300000000     0.019540000000     0.0417383  
H48      H      0.218390000000     0.108330000000     0.048940000000     0.0435079  
H49      H      0.110170000000     0.066570000000     0.978440000000     0.0378435  
H50      H      0.346090000000     0.992070000000     0.938240000000     0.101565   
H51      H      0.878880000000     0.970340000000     0.066520000000     0.0909934  
H52      H      0.639640000000     0.060000000000     0.123560000000     0.0376403  
H53      H      0.643910000000     0.085570000000     0.066610000000     0.045569   
H54      H      0.796540000000     0.995640000000     0.155700000000     0.0385369  
H55      H      0.707010000000     0.004060000000     0.151340000000     0.0377539  
H56      H      0.880700000000     0.071060000000     0.095530000000     0.0413122  
H57      H      0.722230000000     0.086890000000     0.026260000000     0.0397262  
H58      H      0.811830000000     0.078840000000     0.030840000000     0.0445595  
H59      H      0.877000000000     0.019980000000     0.132240000000     0.0362172  
H60      H      0.645040000000     0.979060000000     0.072190000000     0.102491   
H61      H      0.983310000000     0.028120000000     0.712290000000     0.105467   
H62      H      0.054420000000     0.915920000000     0.901010000000     0.0329075  
H63      H      0.085620000000     0.966670000000     0.923940000000     0.0448337  
H64      H      0.053140000000     0.950200000000     0.742130000000     0.0420015  
H65      H      0.048850000000     0.912470000000     0.818780000000     0.0377999  
H66      H      0.066080000000     0.082590000000     0.724820000000     0.0379279  
H67      H      0.057060000000     0.049000000000     0.884680000000     0.0426913  
H68      H      0.060630000000     0.086830000000     0.807860000000     0.0379341  
H69      H      0.093590000000     0.029730000000     0.703540000000     0.0455775  
H70      H      0.973870000000     0.956180000000     0.915120000000     0.10358    
H71      H      0.042210000000     0.044980000000     0.405380000000     0.103342   
H72      H      0.931670000000     0.069050000000     0.188750000000     0.0432661  
H73      H      0.957670000000     0.125430000000     0.202760000000     0.0336706  
H74      H      0.972190000000     0.969850000000     0.318430000000     0.0377761  
H75      H      0.971440000000     0.996620000000     0.237180000000     0.0430509  
H76      H      0.932720000000     0.040110000000     0.414100000000     0.0415127  
H77      H      0.965420000000     0.141220000000     0.283690000000     0.037562   
H78      H      0.965680000000     0.114410000000     0.364850000000     0.0402345  
H79      H      0.960490000000     0.985250000000     0.399690000000     0.0364491  
H80      H      0.042570000000     0.086350000000     0.193350000000     0.104897   
H81      H      0.019110000000     0.878570000000     0.559360000000     0.104025   
H82      H      0.099500000000     0.684230000000     0.460640000000     0.0417914  
H83      H      0.116660000000     0.667480000000     0.518580000000     0.0438701  
H84      H      0.089710000000     0.850570000000     0.465230000000     0.040001   
H85      H      0.086060000000     0.767320000000     0.441910000000     0.0394266  
H86      H      0.117320000000     0.891720000000     0.586730000000     0.0384329  
H87      H      0.103140000000     0.725390000000     0.585280000000     0.0406022  
H88      H      0.106560000000     0.808660000000     0.608620000000     0.0385636  
H89      H      0.118680000000     0.908510000000     0.527070000000     0.0426067  
H90      H      0.012960000000     0.696350000000     0.515730000000     0.102656   
H91      H      0.007310000000     0.194770000000     0.559860000000     0.103795   
H92      H      0.894890000000     0.384010000000     0.466810000000     0.0385959  
H93      H      0.899120000000     0.403390000000     0.526210000000     0.0465619  
H94      H      0.916640000000     0.218730000000     0.472410000000     0.0389686  
H95      H      0.912140000000     0.301050000000     0.446100000000     0.0387127  
H96      H      0.913710000000     0.182300000000     0.597270000000     0.0384249  
H97      H      0.928660000000     0.348400000000     0.587890000000     0.0413499  
H98      H      0.933110000000     0.266080000000     0.614180000000     0.03882    
H99      H      0.904370000000     0.163020000000     0.539050000000     0.0427919  
H100     H      0.993590000000     0.374770000000     0.478670000000     0.102377   
H101     H      0.013990000000     0.527570000000     0.837660000000     0.102948   
H102     H      0.116480000000     0.530510000000     0.629960000000     0.0434115  
H103     H      0.098430000000     0.469710000000     0.632610000000     0.0418983  
H104     H      0.110340000000     0.585850000000     0.786190000000     0.0399446  
H105     H      0.109200000000     0.581990000000     0.700840000000     0.04016    
H106     H      0.105470000000     0.481320000000     0.864170000000     0.0426995  
H107     H      0.076750000000     0.433220000000     0.707780000000     0.0393657  
H108     H      0.077990000000     0.437080000000     0.793130000000     0.0398698  
H109     H      0.116490000000     0.543060000000     0.861370000000     0.0425853  
H110     H      0.012610000000     0.523390000000     0.656150000000     0.102828   
H111     H      0.993930000000     0.548000000000     0.337860000000     0.103225   
H112     H      0.889690000000     0.523300000000     0.133740000000     0.0421269  
H113     H      0.900830000000     0.585520000000     0.129700000000     0.0423985  
H114     H      0.894910000000     0.488640000000     0.294960000000     0.0402104  
H115     H      0.893790000000     0.482870000000     0.209720000000     0.0394978  
H116     H      0.908030000000     0.601710000000     0.360890000000     0.0413337  
H117     H      0.930390000000     0.630560000000     0.199590000000     0.039271   
H118     H      0.931600000000     0.636280000000     0.284850000000     0.0392759  
H119     H      0.889650000000     0.541660000000     0.364920000000     0.0433453  
H120     H      0.991910000000     0.539090000000     0.156460000000     0.103173   
H121     H      0.061820000000     0.685300000000     0.002300000000     0.101616   
H122     H      0.951480000000     0.880820000000     0.115340000000     0.0450855  
H123     H      0.993740000000     0.850410000000     0.152850000000     0.0323961  
H124     H      0.987200000000     0.803090000000     0.965790000000     0.0385465  
H125     H      0.986270000000     0.868400000000     0.021520000000     0.0467784  
H126     H      0.951000000000     0.692320000000     0.984820000000     0.0484959  
H127     H      0.990410000000     0.768810000000     0.135100000000     0.0375928  
H128     H      0.990190000000     0.703510000000     0.079320000000     0.0446273  
H129     H      0.995010000000     0.721200000000     0.948280000000     0.0372278  
H130     H      0.063590000000     0.886890000000     0.112620000000     0.103659   
H131     H      0.013060000000     0.169540000000     0.997400000000     0.103014   
H132     H      0.920280000000     0.384780000000     0.953310000000     0.0432153  
H133     H      0.903980000000     0.386190000000     0.013670000000     0.0422523  
H134     H      0.949320000000     0.224270000000     0.919810000000     0.0382946  
H135     H      0.948920000000     0.310880000000     0.917040000000     0.0395872  
H136     H      0.906680000000     0.154860000000     0.022060000000     0.0429584  
H137     H      0.919730000000     0.315600000000     0.064480000000     0.0400459  
H138     H      0.920210000000     0.228990000000     0.067250000000     0.0393843  
H139     H      0.920080000000     0.152680000000     0.961540000000     0.037909   
H140     H      0.008780000000     0.371280000000     0.009000000000     0.10244    
N1       N      0.559100000000     0.034260000000     0.885290000000    -0.212939   
N2       N      0.520530000000     0.051000000000     0.646880000000    -0.213683   
N3       N      0.428640000000     0.001210000000     0.133760000000    -0.213238   
N4       N      0.507280000000     0.021260000000     0.369300000000    -0.213752   
N5       N      0.130920000000     0.062390000000     0.557000000000    -0.267887   
N6       N      0.370330000000     0.068170000000     0.511070000000    -0.213966   
N7       N      0.896030000000     0.010680000000     0.561340000000    -0.268737   
N8       N      0.657070000000     0.004120000000     0.505740000000    -0.213904   
N9       N      0.125610000000     0.037720000000     0.044580000000    -0.266108   
N10      N      0.362140000000     0.023730000000     0.949080000000    -0.212732   
N11      N      0.886800000000     0.005980000000     0.060810000000    -0.267881   
N12      N      0.628160000000     0.012070000000     0.069080000000    -0.213421   
N13      N      0.016150000000     0.034960000000     0.694640000000    -0.227153   
N14      N      0.007210000000     0.966630000000     0.929920000000    -0.228369   
N15      N      0.010040000000     0.036860000000     0.423570000000    -0.229035   
N16      N      0.009130000000     0.075930000000     0.178730000000    -0.227534   
N17      N      0.047550000000     0.903290000000     0.557060000000    -0.22919    
N18      N      0.040390000000     0.672270000000     0.506420000000    -0.213809   
N19      N      0.979000000000     0.169820000000     0.559900000000    -0.228991   
N20      N      0.966610000000     0.398760000000     0.489250000000    -0.213512   
N21      N      0.041530000000     0.523690000000     0.862770000000    -0.213885   
N22      N      0.040020000000     0.518400000000     0.631090000000    -0.213977   
N23      N      0.966560000000     0.552880000000     0.362960000000    -0.21401    
N24      N      0.964290000000     0.542950000000     0.131430000000    -0.214192   
N25      N      0.026450000000     0.673040000000     0.994930000000    -0.21334    
N26      N      0.027470000000     0.897600000000     0.106310000000    -0.228072   
N27      N      0.982410000000     0.148580000000     0.004740000000    -0.228556   
N28      N      0.979510000000     0.393320000000     0.999860000000    -0.213414   
O1       O      0.061590000000     0.522590000000     0.939890000000    -0.401561   
O2       O      0.022040000000     0.532020000000     0.075460000000    -0.403117   
O3       O      0.029880000000     0.456650000000     0.009230000000    -0.401838   
O4       O      0.053660000000     0.598010000000     0.006060000000    -0.401895   
O5       O      0.975660000000     0.609570000000     0.985120000000    -0.401699   
O6       O      0.951960000000     0.468470000000     0.987990000000    -0.401541   
O7       O      0.944060000000     0.543710000000     0.054320000000    -0.402312   
O8       O      0.983660000000     0.534450000000     0.918690000000    -0.40303    
O9       O      0.022910000000     0.535660000000     0.418710000000    -0.403011   
O10      O      0.060380000000     0.517710000000     0.554020000000    -0.401878   
O11      O      0.022810000000     0.457590000000     0.482190000000    -0.402676   
O12      O      0.060520000000     0.595680000000     0.490760000000    -0.401495   
O13      O      0.983820000000     0.613640000000     0.511840000000    -0.402884   
O14      O      0.946240000000     0.475600000000     0.503540000000    -0.402397   
O15      O      0.983760000000     0.535720000000     0.575330000000    -0.403259   
O16      O      0.946250000000     0.553470000000     0.440030000000    -0.40206    
O17      O      0.976010000000     0.955350000000     0.080590000000    -0.492104   
O18      O      0.953390000000     0.077910000000     0.030150000000    -0.487473   
O19      O      0.966170000000     0.991380000000     0.994160000000    -0.484097   
O20      O      0.969160000000     0.043810000000     0.116710000000    -0.489304   
O21      O      0.049610000000     0.053130000000     0.113530000000    -0.480115   
O22      O      0.046620000000     0.000080000000     0.991420000000    -0.496125   
O23      O      0.033420000000     0.090170000000     0.028480000000    -0.490098   
O24      O      0.056200000000     0.967280000000     0.078900000000    -0.484646   
O25      O      0.990920000000     0.961530000000     0.560610000000    -0.491509   
O26      O      0.957590000000     0.092290000000     0.560680000000    -0.491486   
O27      O      0.972860000000     0.026490000000     0.493710000000    -0.4929     
O28      O      0.975360000000     0.026720000000     0.626510000000    -0.484      
O29      O      0.054200000000     0.045410000000     0.624720000000    -0.480327   
O30      O      0.051070000000     0.047080000000     0.491500000000    -0.489484   
O31      O      0.036050000000     0.111730000000     0.559050000000    -0.489921   
O32      O      0.069340000000     0.980760000000     0.556510000000    -0.488862   
O33      O      0.463330000000     0.970570000000     0.068430000000    -0.401204   
O34      O      0.527030000000     0.987350000000     0.941850000000    -0.400867   
O35      O      0.562700000000     0.976040000000     0.035070000000    -0.400861   
O36      O      0.427850000000     0.981930000000     0.975220000000    -0.400643   
O37      O      0.427600000000     0.060240000000     0.983580000000    -0.402392   
O38      O      0.560880000000     0.054050000000     0.045800000000    -0.402505   
O39      O      0.527230000000     0.065430000000     0.952170000000    -0.402583   
O40      O      0.460970000000     0.048800000000     0.077280000000    -0.40296    
O41      O      0.501110000000     0.990670000000     0.442270000000    -0.401585   
O42      O      0.507970000000     0.005600000000     0.582650000000    -0.401524   
O43      O      0.432150000000     0.014500000000     0.513940000000    -0.402939   
O44      O      0.576790000000     0.981630000000     0.510980000000    -0.401501   
O45      O      0.595360000000     0.057950000000     0.502660000000    -0.403145   
O46      O      0.450560000000     0.090780000000     0.504900000000    -0.401659   
O47      O      0.526030000000     0.081950000000     0.573720000000    -0.402254   
O48      O      0.519980000000     0.066870000000     0.433730000000    -0.402312   


