data_structure

_audit_creation_method RASPA-1.0
_audit_creation_date 2023-6-4
_audit_author_name 'Poobodin Mano'

_cell_length_a    15.6381
_cell_length_b    15.0339
_cell_length_c    29.4196
_cell_angle_alpha 89.9988
_cell_angle_beta  89.9988
_cell_angle_gamma 94.7576
_cell_volume      6892.76

_symmetry_cell_setting          triclinic
_symmetry_space_group_name_Hall 'P 1'
_symmetry_space_group_name_H-M  'P 1'
_symmetry_Int_Tables_number     1

_symmetry_equiv_pos_as_xyz 'x,y,z'

loop_
_atom_site_label
_atom_site_type_symbol
_atom_site_fract_x
_atom_site_fract_y
_atom_site_fract_z
_atom_site_charge
C1       C      0.053600000000     0.049930000000     0.984310000000     0.418346   
C2       C      0.215980000000     0.364530000000     0.023300000000     0.417268   
C3       C      0.278440000000     0.130650000000     0.017580000000     0.416314   
C4       C      0.990440000000     0.286180000000     0.988270000000     0.416912   
C5       C      0.347650000000     0.228420000000     0.557590000000     0.417505   
C6       C      0.058910000000     0.051520000000     0.501640000000     0.418058   
C7       C      0.140150000000     0.292030000000     0.505170000000     0.416868   
C8       C      0.262790000000     0.987410000000     0.554830000000     0.417196   
C9       C      0.635220000000     0.684290000000     0.923010000000     0.484237   
C10      C      0.673270000000     0.712750000000     0.093690000000     0.490734   
C11      C      0.801080000000     0.643000000000     0.999990000000     0.486025   
C12      C      0.499780000000     0.741780000000     0.012980000000     0.486369   
C13      C      0.718020000000     0.668340000000     0.418680000000     0.490258   
C14      C      0.695420000000     0.629370000000     0.589610000000     0.485157   
C15      C      0.759710000000     0.491980000000     0.498610000000     0.488032   
C16      C      0.646760000000     0.798110000000     0.511280000000     0.481902   
C17      C      0.663610000000     0.732660000000     0.717430000000    -0.0404029  
C18      C      0.759700000000     0.650290000000     0.666190000000    -0.0156487  
C19      C      0.670710000000     0.720140000000     0.799710000000     0.0138397  
C20      C      0.726600000000     0.671930000000     0.712700000000     0.0137677  
C21      C      0.646050000000     0.751560000000     0.846220000000    -0.0157652  
C22      C      0.761740000000     0.635820000000     0.751840000000    -0.0444701  
C23      C      0.734470000000     0.660220000000     0.794990000000    -0.0402459  
C24      C      0.635740000000     0.756370000000     0.760550000000    -0.0442948  
C25      C      0.825380000000     0.707910000000     0.267330000000    -0.0438514  
C26      C      0.797140000000     0.728210000000     0.351210000000    -0.013656   
C27      C      0.745380000000     0.782900000000     0.210040000000     0.0115363  
C28      C      0.779250000000     0.746900000000     0.301940000000     0.0115771  
C29      C      0.726230000000     0.799740000000     0.160740000000    -0.0132623  
C30      C      0.716300000000     0.804290000000     0.290260000000    -0.0422369  
C31      C      0.699070000000     0.821710000000     0.244640000000    -0.0438152  
C32      C      0.808640000000     0.725910000000     0.221720000000    -0.0419372  
C33      C      0.577750000000     0.159690000000     0.573940000000    -0.0424173  
C34      C      0.498130000000     0.286190000000     0.543110000000    -0.017317   
C35      C      0.624120000000     0.042940000000     0.524740000000     0.0145574  
C36      C      0.540120000000     0.200130000000     0.536750000000     0.0229259  
C37      C      0.672910000000     0.961590000000     0.517780000000    -0.0135214  
C38      C      0.543650000000     0.160450000000     0.493620000000    -0.0403304  
C39      C      0.585160000000     0.082370000000     0.487700000000    -0.0405732  
C40      C      0.619020000000     0.081460000000     0.568030000000    -0.0396537  
C41      C      0.101180000000     0.800690000000     0.464050000000    -0.0485007  
C42      C      0.959820000000     0.711670000000     0.479450000000    -0.0404162  
C43      C      0.221570000000     0.796690000000     0.516100000000     0.0171505  
C44      C      0.051840000000     0.739410000000     0.491370000000     0.0266733  
C45      C      0.306090000000     0.838530000000     0.533680000000    -0.0184247  
C46      C      0.088770000000     0.705160000000     0.530460000000    -0.0444386  
C47      C      0.172780000000     0.734000000000     0.542880000000    -0.041665   
C48      C      0.185350000000     0.829130000000     0.476340000000    -0.0351016  
C49      C      0.793200000000     0.193880000000     0.461350000000    -0.0411568  
C50      C      0.731190000000     0.328500000000     0.495550000000    -0.0133454  
C51      C      0.862930000000     0.088270000000     0.508380000000     0.0214706  
C52      C      0.779360000000     0.246230000000     0.499700000000     0.0139617  
C53      C      0.905400000000     0.002250000000     0.512710000000    -0.01934    
C54      C      0.808610000000     0.219760000000     0.542330000000    -0.0392629  
C55      C      0.850180000000     0.141370000000     0.546660000000    -0.0414638  
C56      C      0.834640000000     0.115530000000     0.465660000000    -0.0428868  
C57      C      0.360300000000     0.453430000000     0.425640000000    -0.0491547  
C58      C      0.470080000000     0.576020000000     0.450350000000    -0.041472   
C59      C      0.209850000000     0.455820000000     0.445580000000     0.0201758  
C60      C      0.379100000000     0.535280000000     0.447950000000     0.0279838  
C61      C      0.120710000000     0.409930000000     0.447890000000    -0.0165249  
C62      C      0.312650000000     0.577360000000     0.468920000000    -0.0436775  
C63      C      0.228630000000     0.537710000000     0.467830000000    -0.0407112  
C64      C      0.276310000000     0.414080000000     0.424400000000    -0.0347796  
C65      C      0.157110000000     0.857990000000     0.001450000000    -0.0377302  
C66      C      0.057170000000     0.910380000000     0.941430000000    -0.0196683  
C67      C      0.311430000000     0.868750000000     0.990750000000     0.0160327  
C68      C      0.145500000000     0.889420000000     0.957050000000     0.0207499  
C69      C      0.400070000000     0.861300000000     0.009700000000    -0.0146354  
C70      C      0.217660000000     0.907690000000     0.929130000000    -0.0394094  
C71      C      0.300010000000     0.897000000000     0.945800000000    -0.0397218  
C72      C      0.239240000000     0.847900000000     0.018170000000    -0.0406694  
C73      C      0.770240000000     0.091150000000     0.053780000000    -0.0489862  
C74      C      0.675540000000     0.965960000000     0.018060000000    -0.042377   
C75      C      0.799660000000     0.233850000000     0.015640000000     0.0178369  
C76      C      0.718490000000     0.059450000000     0.017270000000     0.0262151  
C77      C      0.846870000000     0.325310000000     0.013170000000    -0.018094   
C78      C      0.707650000000     0.115550000000     0.979930000000    -0.0459098  
C79      C      0.747930000000     0.202070000000     0.979130000000    -0.0399955  
C80      C      0.810660000000     0.177620000000     0.052930000000    -0.0357081  
C81      C      0.085610000000     0.649510000000     0.024920000000    -0.0399161  
C82      C      0.953270000000     0.678890000000     0.980290000000    -0.0134225  
C83      C      0.195990000000     0.563170000000     0.993230000000     0.0222369  
C84      C      0.037330000000     0.637590000000     0.984880000000     0.0125299  
C85      C      0.275770000000     0.515260000000     0.000380000000    -0.0212357  
C86      C      0.068630000000     0.587690000000     0.949100000000    -0.0400411  
C87      C      0.147130000000     0.550160000000     0.953370000000    -0.0401831  
C88      C      0.164700000000     0.613450000000     0.028870000000    -0.0428894  
C89      C      0.532660000000     0.201930000000     0.059540000000    -0.0415955  
C90      C      0.396870000000     0.100570000000     0.069600000000    -0.0203978  
C91      C      0.533810000000     0.362160000000     0.071060000000     0.0263703  
C92      C      0.446810000000     0.190380000000     0.073910000000     0.0180252  
C93      C      0.578810000000     0.454350000000     0.066840000000    -0.0383722  
C94      C      0.405280000000     0.265320000000     0.087540000000    -0.0392462  
C95      C      0.448210000000     0.350570000000     0.085810000000    -0.0431451  
C96      C      0.575840000000     0.287130000000     0.058250000000    -0.046048   
Cu1      Cu     0.153890000000     0.217920000000     0.962730000000     0.851054   
Cu2      Cu     0.114130000000     0.197720000000     0.043810000000     0.846437   
Cu3      Cu     0.233900000000     0.132470000000     0.491540000000     0.846277   
Cu4      Cu     0.171780000000     0.148090000000     0.568310000000     0.850181   
Cu5      Cu     0.684700000000     0.785550000000     0.003110000000     1.21501    
Cu6      Cu     0.619140000000     0.605540000000     0.014110000000     1.1971     
Cu7      Cu     0.790460000000     0.685090000000     0.508560000000     1.20401    
Cu8      Cu     0.620520000000     0.606990000000     0.499390000000     1.20529    
H1       H      0.600540000000     0.615190000000     0.863940000000     0.103583   
H2       H      0.795770000000     0.711310000000     0.652440000000     0.0465856  
H3       H      0.805330000000     0.597470000000     0.668000000000     0.037879   
H4       H      0.587890000000     0.804230000000     0.763320000000     0.0380281  
H5       H      0.636780000000     0.762540000000     0.687700000000     0.0428501  
H6       H      0.699680000000     0.797330000000     0.859650000000     0.0477708  
H7       H      0.811400000000     0.589990000000     0.749070000000     0.0377914  
H8       H      0.763870000000     0.633160000000     0.824740000000     0.0422526  
H9       H      0.588880000000     0.790700000000     0.844110000000     0.0378448  
H10      H      0.632600000000     0.589430000000     0.649120000000     0.104046   
H11      H      0.664010000000     0.664430000000     0.159500000000     0.102576   
H12      H      0.853420000000     0.688200000000     0.355150000000     0.0369084  
H13      H      0.812960000000     0.792670000000     0.369130000000     0.0392459  
H14      H      0.844640000000     0.694970000000     0.195460000000     0.0396605  
H15      H      0.874250000000     0.663500000000     0.275550000000     0.036907   
H16      H      0.684080000000     0.855350000000     0.156900000000     0.036429   
H17      H      0.680160000000     0.835080000000     0.316510000000     0.0390605  
H18      H      0.649650000000     0.865450000000     0.236380000000     0.036635   
H19      H      0.786930000000     0.821150000000     0.142610000000     0.0399073  
H20      H      0.669850000000     0.656620000000     0.353240000000     0.102047   
H21      H      0.549230000000     0.883510000000     0.514260000000     0.104538   
H22      H      0.544540000000     0.335610000000     0.559980000000     0.0338118  
H23      H      0.479540000000     0.313840000000     0.509790000000     0.040935   
H24      H      0.648460000000     0.051980000000     0.597090000000     0.0386341  
H25      H      0.575840000000     0.189260000000     0.607460000000     0.0405731  
H26      H      0.710420000000     0.968950000000     0.485740000000     0.0379007  
H27      H      0.515110000000     0.190380000000     0.464420000000     0.0400033  
H28      H      0.588240000000     0.053510000000     0.454060000000     0.0378705  
H29      H      0.720350000000     0.955450000000     0.545550000000     0.040215   
H30      H      0.426940000000     0.293420000000     0.605870000000     0.100048   
H31      H      0.281360000000     0.886670000000     0.601020000000     0.100417   
H32      H      0.940950000000     0.743390000000     0.447250000000     0.038385   
H33      H      0.952940000000     0.638180000000     0.475010000000     0.0419541  
H34      H      0.221260000000     0.878540000000     0.455530000000     0.0453074  
H35      H      0.074050000000     0.828030000000     0.433740000000     0.0391756  
H36      H      0.342030000000     0.786520000000     0.550220000000     0.0347221  
H37      H      0.051890000000     0.657510000000     0.551860000000     0.0447912  
H38      H      0.198980000000     0.709270000000     0.574070000000     0.0395273  
H39      H      0.345990000000     0.868170000000     0.505310000000     0.0440893  
H40      H      0.904390000000     0.805080000000     0.519020000000     0.0906181  
H41      H      0.982310000000     0.984190000000     0.453080000000     0.0962633  
H42      H      0.693200000000     0.327700000000     0.463560000000     0.0383459  
H43      H      0.685200000000     0.330470000000     0.524220000000     0.0403248  
H44      H      0.843720000000     0.075390000000     0.435730000000     0.0385968  
H45      H      0.771000000000     0.213050000000     0.428160000000     0.0371092  
H46      H      0.918480000000     0.986900000000     0.548920000000     0.0436046  
H47      H      0.798310000000     0.259300000000     0.572320000000     0.0401027  
H48      H      0.871500000000     0.121740000000     0.579930000000     0.0416744  
H49      H      0.861230000000     0.947310000000     0.498820000000     0.0327803  
H50      H      0.856030000000     0.405120000000     0.497830000000     0.103804   
H51      H      0.071110000000     0.402120000000     0.516390000000     0.0997634  
H52      H      0.508310000000     0.550150000000     0.422170000000     0.0395219  
H53      H      0.471390000000     0.649810000000     0.447540000000     0.0418172  
H54      H      0.263470000000     0.350400000000     0.407480000000     0.0430128  
H55      H      0.410810000000     0.419490000000     0.409620000000     0.0379313  
H56      H      0.073100000000     0.459850000000     0.442300000000     0.0316057  
H57      H      0.326100000000     0.640160000000     0.486600000000     0.0424272  
H58      H      0.178340000000     0.570050000000     0.484890000000     0.0417522  
H59      H      0.111300000000     0.358360000000     0.420810000000     0.0419728  
H60      H      0.508520000000     0.484620000000     0.497120000000     0.0902224  
H61      H      0.367740000000     0.718870000000     0.018300000000     0.101127   
H62      H      0.060210000000     0.945210000000     0.908030000000     0.0456516  
H63      H      0.016360000000     0.846870000000     0.937830000000     0.0332359  
H64      H      0.246640000000     0.825230000000     0.052790000000     0.0383286  
H65      H      0.102600000000     0.843960000000     0.023750000000     0.039419   
H66      H      0.449060000000     0.899600000000     0.988380000000     0.042006   
H67      H      0.210510000000     0.932190000000     0.894840000000     0.0406406  
H68      H      0.354900000000     0.912690000000     0.923920000000     0.0394993  
H69      H      0.404290000000     0.892150000000     0.044020000000     0.0357491  
H70      H      0.981160000000     0.932840000000     0.000810000000     0.096595   
H71      H      0.904880000000     0.347390000000     0.947110000000     0.0989431  
H72      H      0.662400000000     0.944030000000     0.053630000000     0.0369215  
H73      H      0.613820000000     0.964200000000     0.999290000000     0.0420074  
H74      H      0.851080000000     0.200320000000     0.081220000000     0.0419993  
H75      H      0.779790000000     0.048690000000     0.082780000000     0.0391877  
H76      H      0.801360000000     0.374370000000     0.002450000000     0.0333665  
H77      H      0.668250000000     0.092230000000     0.951360000000     0.0416994  
H78      H      0.739370000000     0.244130000000     0.949850000000     0.0392811  
H79      H      0.873050000000     0.346180000000     0.047050000000     0.0433405  
H80      H      0.791620000000     0.910280000000     0.010560000000     0.0892304  
H81      H      0.263290000000     0.462470000000     0.068300000000     0.0973885  
H82      H      0.953900000000     0.740720000000     0.001150000000     0.0396043  
H83      H      0.942990000000     0.698040000000     0.944320000000     0.0369063  
H84      H      0.200710000000     0.622990000000     0.060200000000     0.0375564  
H85      H      0.062170000000     0.687010000000     0.053090000000     0.0371944  
H86      H      0.298140000000     0.487170000000     0.967900000000     0.0493957  
H87      H      0.031880000000     0.577120000000     0.918080000000     0.0390008  
H88      H      0.169110000000     0.510000000000     0.925840000000     0.0444437  
H89      H      0.327660000000     0.563250000000     0.013570000000     0.0399449  
H90      H      0.890100000000     0.548260000000     0.997310000000     0.104188   
H91      H      0.608290000000     0.445970000000     0.998490000000     0.0895859  
H92      H      0.441390000000     0.046770000000     0.071530000000     0.031079   
H93      H      0.348640000000     0.091240000000     0.097350000000     0.0447122  
H94      H      0.641520000000     0.294960000000     0.046450000000     0.0397681  
H95      H      0.565430000000     0.145280000000     0.048220000000     0.0386352  
H96      H      0.547440000000     0.500800000000     0.089580000000     0.0425899  
H97      H      0.338820000000     0.258180000000     0.098240000000     0.0491005  
H98      H      0.414260000000     0.407610000000     0.095440000000     0.0411488  
H99      H      0.647020000000     0.453970000000     0.077490000000     0.0362335  
H100     H      0.393250000000     0.084140000000     0.997010000000     0.099137   
N1       N      0.625800000000     0.676350000000     0.877290000000    -0.227524   
N2       N      0.689190000000     0.620520000000     0.635430000000    -0.22793    
N3       N      0.684800000000     0.719340000000     0.139280000000    -0.230318   
N4       N      0.722290000000     0.680870000000     0.373060000000    -0.230323   
N5       N      0.615730000000     0.879560000000     0.515050000000    -0.227934   
N6       N      0.422380000000     0.271180000000     0.572210000000    -0.213675   
N7       N      0.288420000000     0.906760000000     0.567100000000    -0.212952   
N8       N      0.903280000000     0.735750000000     0.516230000000    -0.269229   
N9       N      0.984920000000     0.008350000000     0.486440000000    -0.21434    
N10      N      0.789640000000     0.409860000000     0.496920000000    -0.229416   
N11      N      0.106940000000     0.369020000000     0.492700000000    -0.213467   
N12      N      0.508210000000     0.553860000000     0.493740000000    -0.268083   
N13      N      0.418680000000     0.767610000000     0.013700000000    -0.22852    
N14      N      0.019610000000     0.965700000000     0.975870000000    -0.212885   
N15      N      0.916260000000     0.324140000000     0.979880000000    -0.21346    
N16      N      0.730190000000     0.904270000000     0.996190000000    -0.267473   
N17      N      0.256630000000     0.444910000000     0.034000000000    -0.212657   
N18      N      0.881160000000     0.616230000000     0.994200000000    -0.228813   
N19      N      0.574620000000     0.486050000000     0.020030000000    -0.266242   
N20      N      0.355030000000     0.096900000000     0.025070000000    -0.213152   
O1       O      0.092550000000     0.095340000000     0.952440000000    -0.400442   
O2       O      0.212340000000     0.338140000000     0.981770000000    -0.400492   
O3       O      0.261550000000     0.157510000000     0.977520000000    -0.403322   
O4       O      0.042150000000     0.276040000000     0.955240000000    -0.404286   
O5       O      0.006920000000     0.259480000000     0.028540000000    -0.400613   
O6       O      0.226180000000     0.139010000000     0.050700000000    -0.402485   
O7       O      0.180290000000     0.316960000000     0.055210000000    -0.408209   
O8       O      0.051530000000     0.079980000000     0.024990000000    -0.405642   
O9       O      0.341250000000     0.200260000000     0.516470000000    -0.402362   
O10      O      0.121490000000     0.065450000000     0.473820000000    -0.407697   
O11      O      0.183960000000     0.249840000000     0.476610000000    -0.401513   
O12      O      0.275700000000     0.016060000000     0.514110000000    -0.402305   
O13      O      0.222600000000     0.031880000000     0.583880000000    -0.403292   
O14      O      0.126970000000     0.262830000000     0.545680000000    -0.403389   
O15      O      0.064730000000     0.079140000000     0.542940000000    -0.400267   
O16      O      0.284940000000     0.215740000000     0.585560000000    -0.402434   
O17      O      0.663640000000     0.758580000000     0.940090000000    -0.484237   
O18      O      0.695840000000     0.778640000000     0.068220000000    -0.497962   
O19      O      0.788730000000     0.725310000000     0.996350000000    -0.489546   
O20      O      0.563030000000     0.799820000000     0.008340000000    -0.491633   
O21      O      0.511250000000     0.659380000000     0.016330000000    -0.485876   
O22      O      0.739210000000     0.585090000000     0.008350000000    -0.490791   
O23      O      0.640390000000     0.639880000000     0.077060000000    -0.493189   
O24      O      0.615360000000     0.616860000000     0.948190000000    -0.4827     
O25      O      0.781250000000     0.695080000000     0.443540000000    -0.494916   
O26      O      0.764330000000     0.664450000000     0.571920000000    -0.485889   
O27      O      0.812570000000     0.560370000000     0.502540000000    -0.489725   
O28      O      0.727460000000     0.791200000000     0.512550000000    -0.485057   
O29      O      0.594330000000     0.729610000000     0.506340000000    -0.486335   
O30      O      0.679460000000     0.499500000000     0.496920000000    -0.493926   
O31      O      0.631720000000     0.602460000000     0.564950000000    -0.483662   
O32      O      0.650040000000     0.630640000000     0.436010000000    -0.494446   


