data_structure

_audit_creation_method RASPA-1.0
_audit_creation_date 2023-5-23
_audit_author_name 'Poobodin Mano'

_cell_length_a    30.2885
_cell_length_b    30.3112
_cell_length_c    29.3097
_cell_angle_alpha 89.9998
_cell_angle_beta  89.9998
_cell_angle_gamma 89.9998
_cell_volume      26908.7

_symmetry_cell_setting          triclinic
_symmetry_space_group_name_Hall 'P 1'
_symmetry_space_group_name_H-M  'P 1'
_symmetry_Int_Tables_number     1

_symmetry_equiv_pos_as_xyz 'x,y,z'

loop_
_atom_site_label
_atom_site_type_symbol
_atom_site_fract_x
_atom_site_fract_y
_atom_site_fract_z
_atom_site_charge
C1       C      0.087620000000     0.019510000000     0.015950000000     0.412931   
C2       C      0.916450000000     0.983140000000     0.001580000000     0.413816   
C3       C      0.984270000000     0.087290000000     0.011760000000     0.412159   
C4       C      0.020020000000     0.915520000000     0.005770000000     0.412643   
C5       C      0.090950000000     0.998680000000     0.516360000000     0.412792   
C6       C      0.915890000000     0.000630000000     0.503360000000     0.413336   
C7       C      0.004340000000     0.086940000000     0.515110000000     0.413637   
C8       C      0.003080000000     0.912000000000     0.504750000000     0.414178   
C9       C      0.983550000000     0.503990000000     0.917450000000     0.412921   
C10      C      0.022080000000     0.505110000000     0.094460000000     0.413081   
C11      C      0.994170000000     0.417300000000     0.008720000000     0.412117   
C12      C      0.011380000000     0.591900000000     0.002950000000     0.412333   
C13      C      0.021210000000     0.488790000000     0.417350000000     0.412977   
C14      C      0.984100000000     0.507990000000     0.593570000000     0.412913   
C15      C      0.002890000000     0.411340000000     0.516140000000     0.413792   
C16      C      0.002380000000     0.585340000000     0.494660000000     0.413838   
C17      C      0.498310000000     0.976550000000     0.106840000000     0.413708   
C18      C      0.503220000000     0.011540000000     0.929240000000     0.413423   
C19      C      0.588060000000     0.985300000000     0.018420000000     0.413373   
C20      C      0.413430000000     0.002680000000     0.017260000000     0.41316    
C21      C      0.519070000000     0.011880000000     0.606170000000     0.414003   
C22      C      0.491080000000     0.976660000000     0.430930000000     0.41365    
C23      C      0.591590000000     0.995270000000     0.503280000000     0.413142   
C24      C      0.418610000000     0.993280000000     0.533980000000     0.41305    
C25      C      0.556560000000     0.062260000000     0.795460000000    -0.0421895  
C26      C      0.509440000000     0.065340000000     0.866410000000    -0.0190447  
C27      C      0.524020000000     0.066200000000     0.719810000000     0.0147612  
C28      C      0.514480000000     0.065260000000     0.815300000000     0.0149122  
C29      C      0.528910000000     0.065700000000     0.668710000000    -0.0185567  
C30      C      0.477140000000     0.067900000000     0.787060000000    -0.0428896  
C31      C      0.481880000000     0.068230000000     0.739640000000    -0.0416293  
C32      C      0.561290000000     0.062590000000     0.748030000000    -0.0429254  
C33      C      0.446350000000     0.925600000000     0.290700000000    -0.0430431  
C34      C      0.482590000000     0.922800000000     0.368250000000    -0.0193391  
C35      C      0.489740000000     0.922510000000     0.221040000000     0.0147721  
C36      C      0.485040000000     0.922940000000     0.316930000000     0.0153906  
C37      C      0.492310000000     0.922820000000     0.169750000000    -0.0185779  
C38      C      0.526140000000     0.920930000000     0.294890000000    -0.0420987  
C39      C      0.528480000000     0.920830000000     0.247270000000    -0.0423731  
C40      C      0.448700000000     0.925530000000     0.243080000000    -0.0420368  
C41      C      0.927200000000     0.471360000000     0.730590000000    -0.0424468  
C42      C      0.929610000000     0.513250000000     0.656140000000    -0.019435   
C43      C      0.928230000000     0.509380000000     0.803600000000     0.0144     
C44      C      0.929320000000     0.511910000000     0.707550000000     0.0152479  
C45      C      0.928850000000     0.507950000000     0.854990000000    -0.0185027  
C46      C      0.931630000000     0.551150000000     0.732880000000    -0.0430122  
C47      C      0.931250000000     0.549890000000     0.780570000000    -0.0419351  
C48      C      0.926780000000     0.470100000000     0.778280000000    -0.0423341  
C49      C      0.078850000000     0.533360000000     0.236180000000    -0.0428404  
C50      C      0.076760000000     0.500640000000     0.156940000000    -0.0189364  
C51      C      0.076710000000     0.486930000000     0.303770000000     0.0146375  
C52      C      0.076800000000     0.495880000000     0.208130000000     0.0149469  
C53      C      0.075750000000     0.482290000000     0.354940000000    -0.018564   
C54      C      0.073960000000     0.453930000000     0.228240000000    -0.0420719  
C55      C      0.073790000000     0.449490000000     0.275720000000    -0.0427203  
C56      C      0.078670000000     0.528920000000     0.283660000000    -0.0416897  
C57      C      0.269580000000     0.047030000000     0.522140000000    -0.0436115  
C58      C      0.348430000000     0.033180000000     0.546340000000    -0.0194913  
C59      C      0.207820000000     0.008740000000     0.557560000000     0.014879   
C60      C      0.299500000000     0.023970000000     0.549910000000     0.0154037  
C61      C      0.158690000000     0.001770000000     0.563290000000    -0.0192792  
C62      C      0.283030000000     0.994400000000     0.582690000000    -0.0413925  
C63      C      0.237670000000     0.986540000000     0.586160000000    -0.0439899  
C64      C      0.224170000000     0.040020000000     0.526430000000    -0.0408793  
C65      C      0.768990000000     0.986790000000     0.439740000000    -0.0435125  
C66      C      0.848320000000     0.007280000000     0.456610000000    -0.0193373  
C67      C      0.707730000000     0.026960000000     0.473720000000     0.0151557  
C68      C      0.799290000000     0.013590000000     0.463150000000     0.0152969  
C69      C      0.658720000000     0.034770000000     0.478370000000    -0.0191032  
C70      C      0.783410000000     0.047500000000     0.491400000000    -0.0414717  
C71      C      0.738030000000     0.053920000000     0.496920000000    -0.043083   
C72      C      0.723600000000     0.993630000000     0.444740000000    -0.0416018  
C73      C      0.048250000000     0.780350000000     0.501750000000    -0.0408984  
C74      C      0.012080000000     0.843790000000     0.459630000000    -0.0193046  
C75      C      0.034270000000     0.704110000000     0.480470000000     0.0153097  
C76      C      0.019600000000     0.795100000000     0.467250000000     0.0152005  
C77      C      0.043060000000     0.655500000000     0.487000000000    -0.0191461  
C78      C      0.999640000000     0.764000000000     0.438360000000    -0.0436521  
C79      C      0.007360000000     0.718940000000     0.444540000000    -0.0413461  
C80      C      0.055130000000     0.735270000000     0.508610000000    -0.043563   
C81      C      0.051800000000     0.218100000000     0.529190000000    -0.0413852  
C82      C      0.007120000000     0.154900000000     0.561420000000    -0.0192503  
C83      C      0.032170000000     0.294450000000     0.544300000000     0.0150101  
C84      C      0.015590000000     0.203570000000     0.555120000000     0.0148796  
C85      C      0.041360000000     0.343100000000     0.539140000000    -0.0190339  
C86      C      0.988390000000     0.234850000000     0.576510000000    -0.0436653  
C87      C      0.996860000000     0.279900000000     0.571490000000    -0.041518   
C88      C      0.059800000000     0.263160000000     0.523500000000    -0.0435163  
C89      C      0.222680000000     0.068690000000     0.028700000000    -0.0416485  
C90      C      0.157890000000     0.043200000000     0.980710000000    -0.0195862  
C91      C      0.297940000000     0.046750000000     0.010640000000     0.0148843  
C92      C      0.206610000000     0.043900000000     0.991740000000     0.0156406  
C93      C      0.346940000000     0.049890000000     0.019810000000    -0.0193971  
C94      C      0.236750000000     0.021650000000     0.963530000000    -0.0434461  
C95      C      0.282020000000     0.023580000000     0.972500000000    -0.0409737  
C96      C      0.267890000000     0.069790000000     0.038290000000    -0.0438483  
C97      C      0.780240000000     0.002230000000     0.065260000000    -0.0421978  
C98      C      0.845450000000     0.958610000000     0.035850000000    -0.0205693  
C99      C      0.710220000000     0.003590000000     0.024710000000     0.0153435  
C100     C      0.798790000000     0.975500000000     0.031120000000     0.0175377  
C101     C      0.662710000000     0.018300000000     0.021320000000    -0.0192785  
C102     C      0.772670000000     0.963110000000     0.993620000000    -0.0419957  
C103     C      0.729010000000     0.977620000000     0.990090000000    -0.0420213  
C104     C      0.736300000000     0.016030000000     0.062170000000    -0.042143   
C105     C      0.075370000000     0.782130000000     0.999140000000    -0.0415933  
C106     C      0.039480000000     0.848400000000     0.962070000000    -0.0193645  
C107     C      0.051230000000     0.707310000000     0.982400000000     0.0151231  
C108     C      0.043100000000     0.799230000000     0.969600000000     0.0152047  
C109     C      0.056770000000     0.658040000000     0.987690000000    -0.0191455  
C110     C      0.015210000000     0.769950000000     0.946160000000    -0.043083   
C111     C      0.019490000000     0.724380000000     0.952230000000    -0.0415231  
C112     C      0.079260000000     0.736600000000     0.005660000000    -0.0436526  
C113     C      0.033480000000     0.261520000000     0.017990000000    -0.0439187  
C114     C      0.026180000000     0.342780000000     0.999730000000    -0.0193874  
C115     C      0.985710000000     0.206630000000     0.982790000000     0.0155628  
C116     C      0.010980000000     0.295510000000     0.995170000000     0.0148761  
C117     C      0.974680000000     0.159020000000     0.972490000000    -0.0202654  
C118     C      0.976090000000     0.284610000000     0.965670000000    -0.0408727  
C119     C      0.963480000000     0.240630000000     0.959690000000    -0.0446492  
C120     C      0.021290000000     0.217470000000     0.011480000000    -0.040809   
Cu1      Cu     0.004930000000     0.003490000000     0.966700000000     0.846802   
Cu2      Cu     0.999140000000     0.999250000000     0.050860000000     0.847083   
Cu3      Cu     0.006430000000     0.001770000000     0.467800000000     0.849013   
Cu4      Cu     0.000410000000     0.997170000000     0.551970000000     0.848237   
Cu5      Cu     0.042480000000     0.500420000000     0.996660000000     0.845923   
Cu6      Cu     0.963140000000     0.508790000000     0.015260000000     0.84741    
Cu7      Cu     0.042600000000     0.499480000000     0.514310000000     0.847525   
Cu8      Cu     0.962670000000     0.497210000000     0.496600000000     0.849199   
Cu9      Cu     0.496810000000     0.954160000000     0.009630000000     0.85018    
Cu10     Cu     0.504680000000     0.033880000000     0.026430000000     0.846558   
Cu11     Cu     0.506920000000     0.954240000000     0.526840000000     0.849519   
Cu12     Cu     0.503250000000     0.034290000000     0.510260000000     0.847015   
H1       H      0.529590000000     0.993970000000     0.673450000000     0.103329   
H2       H      0.538640000000     0.081110000000     0.882710000000     0.043696   
H3       H      0.479890000000     0.084780000000     0.876590000000     0.0419316  
H4       H      0.594010000000     0.060120000000     0.733330000000     0.0396845  
H5       H      0.585710000000     0.059670000000     0.816710000000     0.0402332  
H6       H      0.503220000000     0.086960000000     0.652770000000     0.0445554  
H7       H      0.444370000000     0.069710000000     0.801750000000     0.0398463  
H8       H      0.452680000000     0.070150000000     0.718380000000     0.0405332  
H9       H      0.561250000000     0.080030000000     0.658570000000     0.0401918  
H10      H      0.502070000000     0.993870000000     0.860990000000     0.103096   
H11      H      0.499430000000     0.994290000000     0.175080000000     0.103081   
H12      H      0.451310000000     0.907180000000     0.379840000000     0.041499   
H13      H      0.510330000000     0.903220000000     0.382770000000     0.0452633  
H14      H      0.418500000000     0.927670000000     0.223400000000     0.0404837  
H15      H      0.414370000000     0.927740000000     0.307110000000     0.0401392  
H16      H      0.520710000000     0.902520000000     0.157960000000     0.0428111  
H17      H      0.556380000000     0.919440000000     0.314550000000     0.0406915  
H18      H      0.560490000000     0.919310000000     0.230850000000     0.040444   
H19      H      0.462350000000     0.907240000000     0.154800000000     0.0435733  
H20      H      0.479310000000     0.994540000000     0.363860000000     0.102897   
H21      H      0.000220000000     0.500480000000     0.849080000000     0.102884   
H22      H      0.911060000000     0.484670000000     0.641970000000     0.0444153  
H23      H      0.913100000000     0.543750000000     0.643710000000     0.0422385  
H24      H      0.925320000000     0.438480000000     0.795450000000     0.0398507  
H25      H      0.925940000000     0.440690000000     0.711660000000     0.0401594  
H26      H      0.913280000000     0.538160000000     0.869350000000     0.0431774  
H27      H      0.933810000000     0.582730000000     0.715720000000     0.0403335  
H28      H      0.933260000000     0.580510000000     0.799520000000     0.0400939  
H29      H      0.908740000000     0.479750000000     0.867600000000     0.0420693  
H30      H      0.001390000000     0.516030000000     0.661390000000     0.102859   
H31      H      0.003990000000     0.482190000000     0.349320000000     0.103446   
H32      H      0.095960000000     0.530270000000     0.146540000000     0.041704   
H33      H      0.092660000000     0.471480000000     0.140740000000     0.0437236  
H34      H      0.080110000000     0.558240000000     0.304750000000     0.040516   
H35      H      0.080470000000     0.566040000000     0.221310000000     0.0401327  
H36      H      0.090810000000     0.450400000000     0.365430000000     0.0408058  
H37      H      0.071770000000     0.424650000000     0.207160000000     0.0404887  
H38      H      0.071430000000     0.416870000000     0.290600000000     0.0399611  
H39      H      0.096200000000     0.508530000000     0.371040000000     0.0440698  
H40      H      0.005420000000     0.508490000000     0.162830000000     0.103595   
H41      H      0.153770000000     0.997320000000     0.488980000000     0.101625   
H42      H      0.355900000000     0.055420000000     0.517130000000     0.0452485  
H43      H      0.359000000000     0.050880000000     0.577710000000     0.0409247  
H44      H      0.201820000000     0.059060000000     0.505340000000     0.0414853  
H45      H      0.281290000000     0.070990000000     0.497530000000     0.0387507  
H46      H      0.151940000000     0.971160000000     0.583040000000     0.0423923  
H47      H      0.305240000000     0.977440000000     0.605730000000     0.0399383  
H48      H      0.225850000000     0.963450000000     0.611580000000     0.0381745  
H49      H      0.144890000000     0.029540000000     0.583560000000     0.0436984  
H50      H      0.359850000000     0.961950000000     0.548910000000     0.101688   
H51      H      0.653270000000     0.966110000000     0.500390000000     0.102359   
H52      H      0.855570000000     0.978500000000     0.434280000000     0.0425314  
H53      H      0.861830000000     0.036910000000     0.439100000000     0.0445605  
H54      H      0.700790000000     0.972910000000     0.425990000000     0.0408155  
H55      H      0.780420000000     0.960830000000     0.417270000000     0.0387414  
H56      H      0.651780000000     0.063040000000     0.501520000000     0.0438087  
H57      H      0.806210000000     0.069020000000     0.509180000000     0.0419871  
H58      H      0.726610000000     0.080210000000     0.518990000000     0.0388752  
H59      H      0.644990000000     0.044060000000     0.444520000000     0.0426583  
H60      H      0.852870000000     0.998720000000     0.530470000000     0.102454   
H61      H      0.971690000000     0.645050000000     0.482670000000     0.102121   
H62      H      0.042060000000     0.857820000000     0.443210000000     0.0447918  
H63      H      0.984210000000     0.849710000000     0.435670000000     0.0425307  
H64      H      0.077070000000     0.724750000000     0.535700000000     0.0388008  
H65      H      0.065240000000     0.803720000000     0.523510000000     0.0420579  
H66      H      0.064050000000     0.643510000000     0.458460000000     0.0421197  
H67      H      0.978390000000     0.774570000000     0.410730000000     0.0386281  
H68      H      0.992170000000     0.695630000000     0.421340000000     0.0409795  
H69      H      0.062100000000     0.649430000000     0.518870000000     0.0443355  
H70      H      0.998550000000     0.849570000000     0.532680000000     0.10215    
H71      H      0.973350000000     0.349880000000     0.515170000000     0.1023     
H72      H      0.034260000000     0.140840000000     0.582460000000     0.0439077  
H73      H      0.975890000000     0.148810000000     0.580370000000     0.0422692  
H74      H      0.087730000000     0.273550000000     0.503080000000     0.0385663  
H75      H      0.073790000000     0.194520000000     0.513210000000     0.0416281  
H76      H      0.051180000000     0.356830000000     0.572830000000     0.0430353  
H77      H      0.960770000000     0.224440000000     0.597370000000     0.0383031  
H78      H      0.975720000000     0.303470000000     0.588650000000     0.0409318  
H79      H      0.069680000000     0.349030000000     0.515750000000     0.043268   
H80      H      0.006100000000     0.149510000000     0.487050000000     0.102096   
H81      H      0.349930000000     0.978150000000     0.012760000000     0.10186    
H82      H      0.147640000000     0.077140000000     0.971020000000     0.0405001  
H83      H      0.150850000000     0.021650000000     0.950840000000     0.0454938  
H84      H      0.279420000000     0.089040000000     0.067050000000     0.0382705  
H85      H      0.200260000000     0.087320000000     0.050090000000     0.0395233  
H86      H      0.361920000000     0.073220000000     0.994940000000     0.0440028  
H87      H      0.225350000000     0.003220000000     0.934140000000     0.0388104  
H88      H      0.304620000000     0.006900000000     0.949640000000     0.0417926  
H89      H      0.353360000000     0.063780000000     0.054310000000     0.0425663  
H90      H      0.144910000000     0.029490000000     0.052710000000     0.101582   
H91      H      0.645370000000     0.948800000000     0.013110000000     0.10202    
H92      H      0.860020000000     0.968630000000     0.069110000000     0.0481577  
H93      H      0.844200000000     0.921970000000     0.035270000000     0.0382441  
H94      H      0.722660000000     0.036300000000     0.089140000000     0.039146   
H95      H      0.799580000000     0.012050000000     0.094640000000     0.0401969  
H96      H      0.653230000000     0.039120000000     0.051020000000     0.044736   
H97      H      0.785980000000     0.942010000000     0.967170000000     0.0387314  
H98      H      0.709610000000     0.967990000000     0.960680000000     0.0406599  
H99      H      0.658730000000     0.039400000000     0.990560000000     0.0416156  
H100     H      0.859750000000     0.971470000000     0.964440000000     0.100595   
H101     H      0.987630000000     0.655690000000     0.008710000000     0.102312   
H102     H      0.071690000000     0.860920000000     0.949290000000     0.0420495  
H103     H      0.014330000000     0.856410000000     0.935660000000     0.0442927  
H104     H      0.104460000000     0.724250000000     0.028560000000     0.0386491  
H105     H      0.097600000000     0.804110000000     0.017080000000     0.0407165  
H106     H      0.068670000000     0.644010000000     0.954850000000     0.0441526  
H107     H      0.990390000000     0.782290000000     0.922820000000     0.0391752  
H108     H      0.998070000000     0.702370000000     0.933300000000     0.0417973  
H109     H      0.082480000000     0.650130000000     0.013530000000     0.0422615  
H110     H      0.029100000000     0.854360000000     0.035530000000     0.102376   
H111     H      0.969120000000     0.145590000000     0.045280000000     0.101576   
H112     H      0.051970000000     0.346250000000     0.026510000000     0.0415489  
H113     H      0.041680000000     0.352960000000     0.966980000000     0.0448887  
H114     H      0.040010000000     0.191820000000     0.028450000000     0.0434046  
H115     H      0.061120000000     0.268970000000     0.040140000000     0.0384081  
H116     H      0.941100000000     0.156510000000     0.957400000000     0.040044   
H117     H      0.958970000000     0.310150000000     0.946810000000     0.0417521  
H118     H      0.936840000000     0.233080000000     0.936290000000     0.0382206  
H119     H      0.998310000000     0.146720000000     0.946380000000     0.0472984  
H120     H      0.958640000000     0.359820000000     0.019000000000     0.102062   
N1       N      0.525830000000     0.020580000000     0.651020000000    -0.213724   
N2       N      0.504690000000     0.020260000000     0.883870000000    -0.213769   
N3       N      0.496950000000     0.967870000000     0.152220000000    -0.213599   
N4       N      0.484240000000     0.967950000000     0.386080000000    -0.213527   
N5       N      0.974090000000     0.503820000000     0.872210000000    -0.213637   
N6       N      0.974970000000     0.512550000000     0.638660000000    -0.213403   
N7       N      0.030390000000     0.484450000000     0.372250000000    -0.213424   
N8       N      0.031540000000     0.505050000000     0.139710000000    -0.213497   
N9       N      0.135650000000     0.998760000000     0.519330000000    -0.213749   
N10      N      0.374580000000     0.992540000000     0.542540000000    -0.213286   
N11      N      0.635720000000     0.995440000000     0.495300000000    -0.213529   
N12      N      0.871200000000     0.001640000000     0.500350000000    -0.213548   
N13      N      0.002100000000     0.629660000000     0.488400000000    -0.213789   
N14      N      0.003590000000     0.867330000000     0.502510000000    -0.213893   
N15      N      0.002620000000     0.366980000000     0.522030000000    -0.213937   
N16      N      0.005540000000     0.131590000000     0.517570000000    -0.214007   
N17      N      0.368840000000     0.006810000000     0.016460000000    -0.213701   
N18      N      0.131150000000     0.029380000000     0.019980000000    -0.213342   
N19      N      0.632580000000     0.980520000000     0.017990000000    -0.213576   
N20      N      0.872990000000     0.972930000000     0.997370000000    -0.212293   
N21      N      0.015340000000     0.636470000000     0.000960000000    -0.213481   
N22      N      0.028940000000     0.871650000000     0.004620000000    -0.213304   
N23      N      0.975880000000     0.131280000000     0.013550000000    -0.213269   
N24      N      0.989470000000     0.372780000000     0.010070000000    -0.213518   
O1       O      0.069810000000     0.017450000000     0.976290000000    -0.401684   
O2       O      0.939300000000     0.989620000000     0.965360000000    -0.402357   
O3       O      0.990820000000     0.068600000000     0.973070000000    -0.401109   
O4       O      0.018760000000     0.937810000000     0.968540000000    -0.400398   
O5       O      0.012930000000     0.933990000000     0.044440000000    -0.401668   
O6       O      0.985740000000     0.065110000000     0.049030000000    -0.400805   
O7       O      0.934160000000     0.985640000000     0.041260000000    -0.40088    
O8       O      0.064880000000     0.012740000000     0.052200000000    -0.401921   
O9       O      0.072880000000     0.000590000000     0.476860000000    -0.402887   
O10      O      0.939370000000     0.002440000000     0.466940000000    -0.40099    
O11      O      0.006460000000     0.068340000000     0.475880000000    -0.40295    
O12      O      0.006040000000     0.934830000000     0.468010000000    -0.401763   
O13      O      0.999980000000     0.930640000000     0.543880000000    -0.402911   
O14      O      0.001500000000     0.064080000000     0.551840000000    -0.40224    
O15      O      0.933920000000     0.998100000000     0.542850000000    -0.402136   
O16      O      0.067510000000     0.996940000000     0.552820000000    -0.4011     
O17      O      0.023900000000     0.500280000000     0.930090000000    -0.402449   
O18      O      0.053330000000     0.501340000000     0.065110000000    -0.400871   
O19      O      0.032000000000     0.434260000000     0.999610000000    -0.400526   
O20      O      0.045120000000     0.567400000000     0.995210000000    -0.400454   
O21      O      0.973640000000     0.575000000000     0.012360000000    -0.401369   
O22      O      0.960450000000     0.441750000000     0.016550000000    -0.401311   
O23      O      0.981730000000     0.508830000000     0.081830000000    -0.40138    
O24      O      0.952310000000     0.507910000000     0.946780000000    -0.400489   
O25      O      0.052860000000     0.491160000000     0.446370000000    -0.401308   
O26      O      0.024530000000     0.507610000000     0.580570000000    -0.402117   
O27      O      0.038690000000     0.433130000000     0.522490000000    -0.401905   
O28      O      0.038690000000     0.565600000000     0.504260000000    -0.40191    
O29      O      0.966140000000     0.563860000000     0.490470000000    -0.402545   
O30      O      0.967010000000     0.430790000000     0.504540000000    -0.40269    
O31      O      0.952440000000     0.504000000000     0.564750000000    -0.400693   
O32      O      0.980760000000     0.490680000000     0.430150000000    -0.401361   
O33      O      0.495400000000     0.944750000000     0.078110000000    -0.401565   
O34      O      0.499010000000     0.971460000000     0.942600000000    -0.401931   
O35      O      0.563780000000     0.951390000000     0.011080000000    -0.402853   
O36      O      0.430590000000     0.964620000000     0.010220000000    -0.402877   
O37      O      0.437670000000     0.036650000000     0.024810000000    -0.400864   
O38      O      0.570940000000     0.023380000000     0.025800000000    -0.400832   
O39      O      0.506140000000     0.043320000000     0.957990000000    -0.402232   
O40      O      0.502440000000     0.016630000000     0.093460000000    -0.402023   
O41      O      0.516770000000     0.971600000000     0.593010000000    -0.402157   
O42      O      0.496700000000     0.944750000000     0.459110000000    -0.401498   
O43      O      0.572920000000     0.959130000000     0.515320000000    -0.402073   
O44      O      0.440570000000     0.957190000000     0.536620000000    -0.402122   
O45      O      0.437630000000     0.029810000000     0.523810000000    -0.401231   
O46      O      0.569250000000     0.030960000000     0.498560000000    -0.401093   
O47      O      0.491920000000     0.016920000000     0.444330000000    -0.402407   
O48      O      0.514960000000     0.043800000000     0.577730000000    -0.402012   


