data_structure

_audit_creation_method RASPA-1.0
_audit_creation_date 2023-5-23
_audit_author_name 'Poobodin Mano'

_cell_length_a    28.2702
_cell_length_b    28.6277
_cell_length_c    30.0105
_cell_angle_alpha 89.9999
_cell_angle_beta  89.9998
_cell_angle_gamma 90
_cell_volume      24287.8

_symmetry_cell_setting          triclinic
_symmetry_space_group_name_Hall 'P 1'
_symmetry_space_group_name_H-M  'P 1'
_symmetry_Int_Tables_number     1

_symmetry_equiv_pos_as_xyz 'x,y,z'

loop_
_atom_site_label
_atom_site_type_symbol
_atom_site_fract_x
_atom_site_fract_y
_atom_site_fract_z
_atom_site_charge
C1       C      0.006810000000     0.109320000000     0.519610000000     0.4137     
C2       C      0.058500000000     0.931750000000     0.535810000000     0.414144   
C3       C      0.040690000000     0.031460000000     0.615470000000     0.412738   
C4       C      0.024730000000     0.009500000000     0.440120000000     0.412539   
C5       C      0.005620000000     0.431510000000     0.492900000000     0.413384   
C6       C      0.056660000000     0.607800000000     0.520240000000     0.414135   
C7       C      0.024180000000     0.536230000000     0.419650000000     0.413492   
C8       C      0.037890000000     0.502650000000     0.593300000000     0.413337   
C9       C      0.553220000000     0.109990000000     0.460230000000     0.413104   
C10      C      0.516250000000     0.928610000000     0.443640000000     0.412182   
C11      C      0.543830000000     0.008590000000     0.539520000000     0.413081   
C12      C      0.525510000000     0.029580000000     0.364410000000     0.413269   
C13      C      0.519380000000     0.618000000000     0.544200000000     0.412375   
C14      C      0.554370000000     0.441110000000     0.501010000000     0.412676   
C15      C      0.538450000000     0.506640000000     0.608350000000     0.412916   
C16      C      0.535490000000     0.552530000000     0.436680000000     0.412495   
C17      C      0.943460000000     0.037310000000     0.015790000000     0.412525   
C18      C      0.125420000000     0.997520000000     0.040060000000     0.412751   
C19      C      0.049070000000     0.023480000000     0.940610000000     0.411937   
C20      C      0.019920000000     0.011540000000     0.115340000000     0.412519   
C21      C      0.941520000000     0.553900000000     0.986370000000     0.413825   
C22      C      0.116350000000     0.502690000000     0.029150000000     0.414127   
C23      C      0.048780000000     0.515740000000     0.922010000000     0.413637   
C24      C      0.008660000000     0.540880000000     0.093320000000     0.413514   
C25      C      0.433370000000     0.991820000000     0.930260000000     0.412755   
C26      C      0.612160000000     0.034580000000     0.967460000000     0.412463   
C27      C      0.543790000000     0.010190000000     0.862650000000     0.413101   
C28      C      0.502000000000     0.016160000000     0.035260000000     0.412198   
C29      C      0.440360000000     0.503310000000     0.031480000000     0.413658   
C30      C      0.619370000000     0.555990000000     0.011930000000     0.41398    
C31      C      0.522700000000     0.517630000000     0.934190000000     0.413002   
C32      C      0.536570000000     0.541710000000     0.109380000000     0.412882   
C33      C      0.763130000000     0.626760000000     0.026640000000    -0.0427918  
C34      C      0.679190000000     0.617640000000     0.999370000000    -0.0188561  
C35      C      0.829870000000     0.620250000000     0.976000000000     0.0151757  
C36      C      0.731610000000     0.620670000000     0.990980000000     0.0151985  
C37      C      0.882330000000     0.615170000000     0.968880000000    -0.0188179  
C38      C      0.749530000000     0.614660000000     0.947730000000    -0.0421697  
C39      C      0.798340000000     0.614300000000     0.940310000000    -0.0429998  
C40      C      0.811920000000     0.626420000000     0.019210000000    -0.0412937  
C41      C      0.252370000000     0.430620000000     0.007530000000    -0.0420346  
C42      C      0.175060000000     0.441570000000     0.048080000000    -0.0189045  
C43      C      0.327670000000     0.437230000000     0.046020000000     0.0144622  
C44      C      0.228160000000     0.437460000000     0.047840000000     0.0152191  
C45      C      0.380690000000     0.441630000000     0.044320000000    -0.0182913  
C46      C      0.254030000000     0.443850000000     0.087300000000    -0.0430615  
C47      C      0.303460000000     0.443860000000     0.086370000000    -0.042069   
C48      C      0.301790000000     0.430630000000     0.006610000000    -0.0420486  
C49      C      0.807930000000     0.095330000000     0.958320000000    -0.0424143  
C50      C      0.878600000000     0.094930000000     0.009800000000    -0.0190512  
C51      C      0.727550000000     0.094930000000     0.987070000000     0.014409   
C52      C      0.825930000000     0.095150000000     0.001920000000     0.0146394  
C53      C      0.674940000000     0.093430000000     0.979110000000    -0.018432   
C54      C      0.794380000000     0.094180000000     0.038050000000    -0.0426492  
C55      C      0.745540000000     0.093940000000     0.030670000000    -0.0425707  
C56      C      0.759100000000     0.095060000000     0.950950000000    -0.0421958  
C57      C      0.265760000000     0.015670000000     0.937410000000    -0.0458483  
C58      C      0.350760000000     0.014980000000     0.911200000000    -0.0208776  
C59      C      0.245660000000     0.018530000000     0.016190000000     0.0178032  
C60      C      0.314210000000     0.015450000000     0.947870000000     0.0186964  
C61      C      0.209020000000     0.021940000000     0.052620000000    -0.0209064  
C62      C      0.328070000000     0.017790000000     0.992790000000    -0.0379609  
C63      C      0.294110000000     0.019150000000     0.026630000000    -0.0454982  
C64      C      0.231820000000     0.017520000000     0.971230000000    -0.0383181  
C65      C      0.526840000000     0.611560000000     0.301910000000    -0.0418899  
C66      C      0.491110000000     0.568250000000     0.367230000000    -0.0197105  
C67      C      0.517520000000     0.583690000000     0.225840000000     0.0151008  
C68      C      0.500840000000     0.573290000000     0.317990000000     0.0154426  
C69      C      0.524410000000     0.590610000000     0.176360000000    -0.0196544  
C70      C      0.482530000000     0.540720000000     0.287550000000    -0.0431461  
C71      C      0.490330000000     0.546170000000     0.241850000000    -0.0409755  
C72      C      0.535290000000     0.616590000000     0.256260000000    -0.044072   
C73      C      0.477400000000     0.489850000000     0.799630000000    -0.0413179  
C74      C      0.523680000000     0.465910000000     0.868210000000    -0.0192478  
C75      C      0.505900000000     0.472660000000     0.724930000000     0.0157931  
C76      C      0.517680000000     0.468720000000     0.818250000000     0.0151133  
C77      C      0.498990000000     0.473900000000     0.675020000000    -0.0197074  
C78      C      0.551370000000     0.448450000000     0.789800000000    -0.0433583  
C79      C      0.545270000000     0.449950000000     0.743590000000    -0.0416294  
C80      C      0.471820000000     0.492250000000     0.753400000000    -0.0432275  
C81      C      0.507140000000     0.980920000000     0.235740000000    -0.040381   
C82      C      0.559590000000     0.026350000000     0.288500000000    -0.0198052  
C83      C      0.511150000000     0.992360000000     0.155530000000     0.0158793  
C84      C      0.541870000000     0.015370000000     0.242230000000     0.0147706  
C85      C      0.496860000000     0.977630000000     0.109140000000    -0.0205153  
C86      C      0.561780000000     0.037550000000     0.204960000000    -0.0442439  
C87      C      0.546910000000     0.025810000000     0.161970000000    -0.0406292  
C88      C      0.491790000000     0.969670000000     0.192800000000    -0.045148   
C89      C      0.552310000000     0.944250000000     0.718380000000    -0.0432992  
C90      C      0.573680000000     0.966810000000     0.797330000000    -0.0194584  
C91      C      0.587650000000     0.983430000000     0.654690000000     0.0146186  
C92      C      0.578030000000     0.972960000000     0.747590000000     0.0157224  
C93      C      0.592810000000     0.988610000000     0.604930000000    -0.0184132  
C94      C      0.608810000000     0.006740000000     0.729970000000    -0.0425025  
C95      C      0.613350000000     0.012170000000     0.683880000000    -0.0429282  
C96      C      0.557280000000     0.949300000000     0.672300000000    -0.0416589  
C97      C      0.543590000000     0.725780000000     0.483220000000    -0.0389403  
C98      C      0.546500000000     0.698500000000     0.563310000000    -0.0211416  
C99      C      0.540780000000     0.808390000000     0.464270000000     0.017259   
C100     C      0.543400000000     0.736770000000     0.528850000000     0.0186634  
C101     C      0.542290000000     0.846700000000     0.429760000000    -0.0207722  
C102     C      0.542460000000     0.783910000000     0.541880000000    -0.0458661  
C103     C      0.541490000000     0.819390000000     0.509890000000    -0.0385335  
C104     C      0.542190000000     0.761260000000     0.451240000000    -0.0451683  
C105     C      0.612760000000     0.295240000000     0.516980000000    -0.042392   
C106     C      0.611090000000     0.377300000000     0.486050000000    -0.0192318  
C107     C      0.610660000000     0.227390000000     0.468320000000     0.0143201  
C108     C      0.610310000000     0.325030000000     0.479880000000     0.0150654  
C109     C      0.610520000000     0.175130000000     0.462200000000    -0.0183199  
C110     C      0.607010000000     0.305640000000     0.437030000000    -0.0429427  
C111     C      0.607030000000     0.257160000000     0.431300000000    -0.0421398  
C112     C      0.612810000000     0.246770000000     0.511250000000    -0.0422021  
C113     C      0.994260000000     0.492290000000     0.243180000000    -0.042982   
C114     C      0.973280000000     0.512390000000     0.163600000000    -0.0195867  
C115     C      0.976690000000     0.545290000000     0.304340000000     0.015213   
C116     C      0.974810000000     0.524050000000     0.212610000000     0.0157167  
C117     C      0.975720000000     0.555840000000     0.353620000000    -0.0194813  
C118     C      0.955220000000     0.566000000000     0.228410000000    -0.0416273  
C119     C      0.956390000000     0.576640000000     0.273850000000    -0.0441169  
C120     C      0.994630000000     0.502540000000     0.288690000000    -0.0406185  
C121     C      0.039690000000     0.448250000000     0.728720000000    -0.0413341  
C122     C      0.000040000000     0.494010000000     0.666980000000    -0.0196427  
C123     C      0.037520000000     0.474820000000     0.805670000000     0.015745   
C124     C      0.013750000000     0.487640000000     0.715200000000     0.0149999  
C125     C      0.048050000000     0.466160000000     0.854310000000    -0.020219   
C126     C      0.998720000000     0.519900000000     0.747450000000    -0.0427829  
C127     C      0.009910000000     0.513220000000     0.792340000000    -0.0409606  
C128     C      0.051680000000     0.442050000000     0.773510000000    -0.0448388  
C129     C      0.954370000000     0.007950000000     0.295300000000    -0.0432707  
C130     C      0.977520000000     0.986820000000     0.374260000000    -0.0189116  
C131     C      0.992590000000     0.971720000000     0.231440000000     0.0154134  
C132     C      0.983260000000     0.982270000000     0.324440000000     0.015174   
C133     C      0.996850000000     0.965650000000     0.181650000000    -0.0188229  
C134     C      0.016780000000     0.951200000000     0.306690000000    -0.0419429  
C135     C      0.021640000000     0.946190000000     0.260570000000    -0.0432028  
C136     C      0.958870000000     0.002560000000     0.249180000000    -0.042292   
C137     C      0.107970000000     0.032950000000     0.805690000000    -0.0420841  
C138     C      0.072480000000     0.069590000000     0.874610000000    -0.0192655  
C139     C      0.083320000000     0.056290000000     0.731310000000     0.0149844  
C140     C      0.075430000000     0.064240000000     0.824660000000     0.0146994  
C141     C      0.088310000000     0.053180000000     0.681330000000    -0.0191325  
C142     C      0.046860000000     0.091510000000     0.796570000000    -0.0429462  
C143     C      0.050940000000     0.087720000000     0.750280000000    -0.0420841  
C144     C      0.111690000000     0.028790000000     0.759400000000    -0.043229   
C145     C      0.125140000000     0.791420000000     0.573360000000    -0.0427045  
C146     C      0.120610000000     0.870900000000     0.537200000000    -0.0190283  
C147     C      0.122350000000     0.720350000000     0.529210000000     0.0150137  
C148     C      0.122930000000     0.818460000000     0.534400000000     0.0152168  
C149     C      0.118910000000     0.667970000000     0.526510000000    -0.0186074  
C150     C      0.120310000000     0.796120000000     0.492840000000    -0.041956   
C151     C      0.119890000000     0.747390000000     0.490270000000    -0.0420085  
C152     C      0.124710000000     0.742680000000     0.570790000000    -0.0424672  
C153     C      0.938800000000     0.287900000000     0.458600000000    -0.0434848  
C154     C      0.943610000000     0.370720000000     0.487270000000    -0.0194307  
C155     C      0.940910000000     0.221680000000     0.509210000000     0.0142921  
C156     C      0.941350000000     0.318800000000     0.494840000000     0.0153925  
C157     C      0.944510000000     0.169820000000     0.516650000000    -0.0181272  
C158     C      0.943740000000     0.300810000000     0.538290000000    -0.0418465  
C159     C      0.943680000000     0.252580000000     0.545420000000    -0.0423422  
C160     C      0.938710000000     0.239660000000     0.465740000000    -0.0418584  
Cu1      Cu     0.990730000000     0.009050000000     0.532510000000     0.847859   
Cu2      Cu     0.074620000000     0.032040000000     0.523070000000     0.848474   
Cu3      Cu     0.989040000000     0.530580000000     0.511370000000     0.849177   
Cu4      Cu     0.073220000000     0.508760000000     0.501640000000     0.849576   
Cu5      Cu     0.491990000000     0.027410000000     0.456840000000     0.848597   
Cu6      Cu     0.577430000000     0.011230000000     0.447140000000     0.845706   
Cu7      Cu     0.493880000000     0.521590000000     0.521240000000     0.84643    
Cu8      Cu     0.579930000000     0.537560000000     0.523780000000     0.847016   
Cu9      Cu     0.043360000000     0.059610000000     0.031910000000     0.845247   
Cu10     Cu     0.025510000000     0.975320000000     0.024010000000     0.847818   
Cu11     Cu     0.042170000000     0.569430000000     0.005000000000     0.849795   
Cu12     Cu     0.015720000000     0.487130000000     0.010440000000     0.848083   
Cu13     Cu     0.513160000000     0.055260000000     0.945560000000     0.845861   
Cu14     Cu     0.532360000000     0.971140000000     0.952280000000     0.848924   
Cu15     Cu     0.516990000000     0.570800000000     0.017490000000     0.849029   
Cu16     Cu     0.542730000000     0.488560000000     0.026040000000     0.847262   
H1       H      0.871210000000     0.540120000000     0.972950000000     0.102921   
H2       H      0.669210000000     0.638550000000     0.029170000000     0.0422209  
H3       H      0.659200000000     0.631910000000     0.970470000000     0.0437944  
H4       H      0.835730000000     0.630050000000     0.047290000000     0.0411178  
H5       H      0.749980000000     0.630780000000     0.060330000000     0.0401238  
H6       H      0.892030000000     0.625720000000     0.934420000000     0.0394633  
H7       H      0.725760000000     0.609250000000     0.919900000000     0.0407061  
H8       H      0.811510000000     0.608480000000     0.906870000000     0.0393378  
H9       H      0.901920000000     0.638940000000     0.991710000000     0.0455265  
H10      H      0.691130000000     0.542870000000     0.007800000000     0.10333    
H11      H      0.368480000000     0.516180000000     0.034610000000     0.103441   
H12      H      0.159350000000     0.418520000000     0.022130000000     0.0443662  
H13      H      0.160470000000     0.430580000000     0.080860000000     0.0407976  
H14      H      0.319850000000     0.426400000000     0.975030000000     0.0404149  
H15      H      0.233000000000     0.426370000000     0.976650000000     0.0409769  
H16      H      0.396730000000     0.429220000000     0.076040000000     0.0419943  
H17      H      0.235970000000     0.449920000000     0.118600000000     0.039957   
H18      H      0.322830000000     0.449950000000     0.116970000000     0.0399152  
H19      H      0.395470000000     0.418960000000     0.017610000000     0.0427952  
H20      H      0.186680000000     0.516540000000     0.042210000000     0.103735   
H21      H      0.681410000000     0.017640000000     0.982940000000     0.102919   
H22      H      0.896940000000     0.115390000000     0.983440000000     0.042738   
H23      H      0.887220000000     0.111490000000     0.042350000000     0.0426355  
H24      H      0.745910000000     0.094930000000     0.917060000000     0.0400895  
H25      H      0.831720000000     0.095470000000     0.930010000000     0.0403069  
H26      H      0.655930000000     0.112260000000     0.006150000000     0.0415225  
H27      H      0.807570000000     0.093410000000     0.071930000000     0.0396022  
H28      H      0.721760000000     0.092940000000     0.058960000000     0.0394756  
H29      H      0.665850000000     0.112040000000     0.947700000000     0.0430806  
H30      H      0.873690000000     0.019110000000     0.004350000000     0.103125   
H31      H      0.181920000000     0.951730000000     0.045900000000     0.101745   
H32      H      0.333820000000     0.005750000000     0.878940000000     0.0351604  
H33      H      0.365550000000     0.050770000000     0.907880000000     0.0490665  
H34      H      0.194710000000     0.018260000000     0.962260000000     0.0460726  
H35      H      0.254140000000     0.014840000000     0.903030000000     0.0382347  
H36      H      0.225850000000     0.015140000000     0.085470000000     0.0362348  
H37      H      0.365170000000     0.018770000000     0.001740000000     0.0479557  
H38      H      0.305720000000     0.021040000000     0.060980000000     0.0390977  
H39      H      0.194760000000     0.058110000000     0.053250000000     0.0489739  
H40      H      0.378340000000     0.945190000000     0.919600000000     0.101363   
H41      H      0.552730000000     0.519750000000     0.173300000000     0.101922   
H42      H      0.471740000000     0.599780000000     0.378860000000     0.0407971  
H43      H      0.468010000000     0.537620000000     0.374170000000     0.0456251  
H44      H      0.555340000000     0.646470000000     0.244680000000     0.0378172  
H45      H      0.540490000000     0.637590000000     0.324730000000     0.0388463  
H46      H      0.490670000000     0.603350000000     0.161680000000     0.0457889  
H47      H      0.461730000000     0.511330000000     0.299050000000     0.0394289  
H48      H      0.475090000000     0.521090000000     0.218950000000     0.0426808  
H49      H      0.551410000000     0.618000000000     0.169740000000     0.0409521  
H50      H      0.567340000000     0.573300000000     0.377960000000     0.101286   
H51      H      0.571860000000     0.498540000000     0.669030000000     0.101575   
H52      H      0.496040000000     0.442230000000     0.881800000000     0.0424604  
H53      H      0.558430000000     0.450430000000     0.877440000000     0.043876   
H54      H      0.440630000000     0.509050000000     0.739920000000     0.0393682  
H55      H      0.450290000000     0.504630000000     0.820890000000     0.0411518  
H56      H      0.493980000000     0.437610000000     0.662730000000     0.0411393  
H57      H      0.582220000000     0.431070000000     0.803330000000     0.0385375  
H58      H      0.571370000000     0.433450000000     0.722360000000     0.039737   
H59      H      0.466240000000     0.493320000000     0.666080000000     0.0459815  
H60      H      0.510180000000     0.541090000000     0.870200000000     0.102142   
H61      H      0.479190000000     0.049480000000     0.092650000000     0.100761   
H62      H      0.581520000000     0.996460000000     0.300080000000     0.0462193  
H63      H      0.582850000000     0.057680000000     0.288470000000     0.0398883  
H64      H      0.465200000000     0.942780000000     0.188660000000     0.0382487  
H65      H      0.492130000000     0.962500000000     0.263920000000     0.0429788  
H66      H      0.523700000000     0.952620000000     0.096320000000     0.0480863  
H67      H      0.589360000000     0.063460000000     0.209050000000     0.0380873  
H68      H      0.563550000000     0.042690000000     0.133730000000     0.0439888  
H69      H      0.462390000000     0.958950000000     0.110070000000     0.0383622  
H70      H      0.487200000000     0.043780000000     0.307190000000     0.10216    
H71      H      0.518070000000     0.007860000000     0.604030000000     0.102721   
H72      H      0.551120000000     0.936220000000     0.805850000000     0.0448669  
H73      H      0.609380000000     0.959840000000     0.811400000000     0.0422683  
H74      H      0.537350000000     0.926650000000     0.650300000000     0.040408   
H75      H      0.528590000000     0.917760000000     0.731190000000     0.0392329  
H76      H      0.620760000000     0.014470000000     0.596370000000     0.042534   
H77      H      0.629260000000     0.028950000000     0.751960000000     0.0404444  
H78      H      0.637130000000     0.038610000000     0.671050000000     0.0385684  
H79      H      0.604520000000     0.954760000000     0.590460000000     0.0419104  
H80      H      0.550680000000     0.039620000000     0.800030000000     0.102097   
H81      H      0.471100000000     0.871560000000     0.441130000000     0.101491   
H82      H      0.582600000000     0.683220000000     0.562020000000     0.0490843  
H83      H      0.541180000000     0.713220000000     0.597220000000     0.0355857  
H84      H      0.542750000000     0.751860000000     0.416280000000     0.038008   
H85      H      0.545200000000     0.689740000000     0.472330000000     0.0471837  
H86      H      0.578620000000     0.861470000000     0.428840000000     0.0484754  
H87      H      0.543090000000     0.793330000000     0.576830000000     0.0383773  
H88      H      0.541620000000     0.855480000000     0.520760000000     0.0456897  
H89      H      0.534720000000     0.831890000000     0.396270000000     0.0355614  
H90      H      0.474670000000     0.673290000000     0.559070000000     0.101496   
H91      H      0.533860000000     0.179080000000     0.469480000000     0.10356    
H92      H      0.631860000000     0.386740000000     0.516250000000     0.0440454  
H93      H      0.628460000000     0.394410000000     0.457060000000     0.0420831  
H94      H      0.614750000000     0.224360000000     0.540270000000     0.0402614  
H95      H      0.614760000000     0.309530000000     0.550350000000     0.040298   
H96      H      0.626740000000     0.165600000000     0.429670000000     0.0422047  
H97      H      0.604540000000     0.328030000000     0.408030000000     0.0402573  
H98      H      0.604470000000     0.242850000000     0.397970000000     0.0400098  
H99      H      0.632820000000     0.158170000000     0.488130000000     0.0423301  
H100     H      0.534030000000     0.373760000000     0.484710000000     0.10311    
H101     H      0.051430000000     0.541310000000     0.355840000000     0.101909   
H102     H      0.988450000000     0.477210000000     0.156920000000     0.0458149  
H103     H      0.935680000000     0.511390000000     0.152770000000     0.0408754  
H104     H      0.009030000000     0.477080000000     0.311690000000     0.0430726  
H105     H      0.008750000000     0.459310000000     0.231920000000     0.0390779  
H106     H      0.968470000000     0.593520000000     0.359520000000     0.0406999  
H107     H      0.939020000000     0.590520000000     0.205540000000     0.0395607  
H108     H      0.941080000000     0.609210000000     0.285230000000     0.0381611  
H109     H      0.946140000000     0.535990000000     0.369090000000     0.0460916  
H110     H      0.005120000000     0.580590000000     0.150680000000     0.101635   
H111     H      0.074340000000     0.537320000000     0.860720000000     0.101748   
H112     H      0.976280000000     0.464810000000     0.657200000000     0.0414387  
H113     H      0.979760000000     0.526900000000     0.661890000000     0.0451551  
H114     H      0.071610000000     0.411340000000     0.783120000000     0.0378866  
H115     H      0.050530000000     0.422220000000     0.704590000000     0.0400029  
H116     H      0.017260000000     0.447890000000     0.869410000000     0.0473605  
H117     H      0.977740000000     0.549990000000     0.738020000000     0.0390737  
H118     H      0.996910000000     0.538080000000     0.816640000000     0.0443119  
H119     H      0.079150000000     0.442670000000     0.857750000000     0.0391451  
H120     H      0.074530000000     0.483540000000     0.650010000000     0.101905   
H121     H      0.017320000000     0.039130000000     0.179010000000     0.102357   
H122     H      0.947720000000     0.010510000000     0.383010000000     0.0426295  
H123     H      0.968840000000     0.951920000000     0.388350000000     0.0432966  
H124     H      0.936010000000     0.022420000000     0.227260000000     0.0406813  
H125     H      0.928070000000     0.031920000000     0.308190000000     0.0384277  
H126     H      0.021790000000     0.936920000000     0.173180000000     0.0437472  
H127     H      0.039160000000     0.930800000000     0.328610000000     0.0412447  
H128     H      0.047800000000     0.922080000000     0.247680000000     0.0393529  
H129     H      0.961940000000     0.955140000000     0.167820000000     0.0426238  
H130     H      0.050680000000     0.011270000000     0.375670000000     0.102497   
H131     H      0.014880000000     0.029570000000     0.679990000000     0.102434   
H132     H      0.108170000000     0.078480000000     0.887690000000     0.0412293  
H133     H      0.048440000000     0.098700000000     0.884180000000     0.0436229  
H134     H      0.137080000000     0.004460000000     0.745550000000     0.0387387  
H135     H      0.130570000000     0.011860000000     0.826790000000     0.0397921  
H136     H      0.097650000000     0.088200000000     0.667910000000     0.0430428  
H137     H      0.021710000000     0.116090000000     0.810410000000     0.0385848  
H138     H      0.028940000000     0.109430000000     0.729180000000     0.0408817  
H139     H      0.117870000000     0.029540000000     0.671790000000     0.043249   
H140     H      0.052190000000     0.996000000000     0.876890000000     0.102525   
H141     H      0.042700000000     0.677330000000     0.533720000000     0.103181   
H142     H      0.139700000000     0.883650000000     0.567240000000     0.0414672  
H143     H      0.137760000000     0.886970000000     0.507550000000     0.0446325  
H144     H      0.125700000000     0.722380000000     0.601240000000     0.0402586  
H145     H      0.126450000000     0.808050000000     0.605760000000     0.0400297  
H146     H      0.136450000000     0.655080000000     0.495670000000     0.0443568  
H147     H      0.117860000000     0.816410000000     0.462460000000     0.0407571  
H148     H      0.117120000000     0.730760000000     0.457960000000     0.0409632  
H149     H      0.138120000000     0.651500000000     0.554790000000     0.0420878  
H150     H      0.044550000000     0.861590000000     0.545350000000     0.10322    
H151     H      0.020730000000     0.179540000000     0.510340000000     0.103398   
H152     H      0.926670000000     0.380130000000     0.455060000000     0.0397491  
H153     H      0.924130000000     0.389260000000     0.514220000000     0.0454751  
H154     H      0.937560000000     0.216320000000     0.437340000000     0.0400442  
H155     H      0.937560000000     0.301100000000     0.424790000000     0.0392397  
H156     H      0.928810000000     0.160080000000     0.549360000000     0.0419922  
H157     H      0.946350000000     0.324130000000     0.566620000000     0.040951   
H158     H      0.946410000000     0.239350000000     0.579140000000     0.039842   
H159     H      0.923790000000     0.150630000000     0.490990000000     0.0423469  
H160     H      0.019700000000     0.362030000000     0.479380000000     0.102841   
N1       N      0.896620000000     0.566530000000     0.976010000000    -0.213691   
N2       N      0.665160000000     0.568920000000     0.006650000000    -0.21381    
N3       N      0.394560000000     0.490280000000     0.036410000000    -0.213909   
N4       N      0.161190000000     0.490130000000     0.039750000000    -0.213736   
N5       N      0.657870000000     0.045140000000     0.976870000000    -0.213647   
N6       N      0.896950000000     0.047040000000     0.009540000000    -0.2135     
N7       N      0.171820000000     0.986880000000     0.046000000000    -0.213124   
N8       N      0.387800000000     0.980500000000     0.920740000000    -0.212995   
N9       N      0.539420000000     0.547370000000     0.154200000000    -0.213599   
N10      N      0.535110000000     0.564560000000     0.392940000000    -0.213468   
N11      N      0.539740000000     0.494730000000     0.652100000000    -0.213097   
N12      N      0.518590000000     0.511800000000     0.889490000000    -0.213506   
N13      N      0.491800000000     0.018040000000     0.079410000000    -0.213968   
N14      N      0.520370000000     0.034170000000     0.319670000000    -0.213787   
N15      N      0.548090000000     0.002820000000     0.584200000000    -0.214066   
N16      N      0.554720000000     0.008960000000     0.818650000000    -0.213493   
N17      N      0.506380000000     0.882390000000     0.439150000000    -0.21322    
N18      N      0.509970000000     0.663070000000     0.555300000000    -0.212913   
N19      N      0.562350000000     0.156320000000     0.464460000000    -0.213496   
N20      N      0.562950000000     0.395820000000     0.490340000000    -0.213373   
N21      N      0.020750000000     0.544010000000     0.375190000000    -0.213962   
N22      N      0.997830000000     0.547810000000     0.136860000000    -0.213144   
N23      N      0.058520000000     0.509760000000     0.878110000000    -0.213841   
N24      N      0.041450000000     0.493360000000     0.637490000000    -0.21354    
N25      N      0.012500000000     0.008890000000     0.159950000000    -0.213527   
N26      N      0.021070000000     0.003790000000     0.395350000000    -0.213664   
N27      N      0.044500000000     0.036860000000     0.660260000000    -0.213447   
N28      N      0.056720000000     0.026220000000     0.896040000000    -0.213742   
N29      N      0.069360000000     0.652880000000     0.527220000000    -0.213688   
N30      N      0.071240000000     0.886290000000     0.539800000000    -0.213785   
N31      N      0.994020000000     0.154710000000     0.515170000000    -0.213744   
N32      N      0.993000000000     0.386330000000     0.486230000000    -0.213447   
O1       O      0.975060000000     0.077940000000     0.525770000000    -0.401555   
O2       O      0.014560000000     0.942480000000     0.538270000000    -0.403003   
O3       O      0.000950000000     0.018520000000     0.598960000000    -0.401915   
O4       O      0.988820000000     0.001590000000     0.465180000000    -0.400768   
O5       O      0.064380000000     0.022690000000     0.456630000000    -0.401864   
O6       O      0.076610000000     0.039300000000     0.590400000000    -0.400779   
O7       O      0.090250000000     0.963120000000     0.529600000000    -0.401459   
O8       O      0.050790000000     0.098630000000     0.517450000000    -0.402704   
O9       O      0.973690000000     0.462360000000     0.500390000000    -0.402405   
O10      O      0.012690000000     0.596810000000     0.521450000000    -0.402731   
O11      O      0.987880000000     0.542130000000     0.444690000000    -0.401934   
O12      O      0.998260000000     0.516320000000     0.577020000000    -0.401931   
O13      O      0.074380000000     0.497240000000     0.568440000000    -0.402292   
O14      O      0.063880000000     0.522760000000     0.435850000000    -0.402564   
O15      O      0.088580000000     0.576990000000     0.512540000000    -0.401581   
O16      O      0.049580000000     0.442510000000     0.491700000000    -0.402419   
O17      O      0.510270000000     0.095800000000     0.462560000000    -0.401151   
O18      O      0.482110000000     0.957320000000     0.450190000000    -0.401255   
O19      O      0.503190000000     0.018730000000     0.523200000000    -0.402094   
O20      O      0.489170000000     0.034640000000     0.389520000000    -0.401921   
O21      O      0.566260000000     0.019970000000     0.380860000000    -0.401998   
O22      O      0.580190000000     0.003670000000     0.514350000000    -0.402025   
O23      O      0.559160000000     0.942950000000     0.441170000000    -0.402      
O24      O      0.587390000000     0.081190000000     0.454000000000    -0.401064   
O25      O      0.484750000000     0.589670000000     0.538570000000    -0.401673   
O26      O      0.511400000000     0.455080000000     0.504210000000    -0.401536   
O27      O      0.499430000000     0.503960000000     0.586630000000    -0.40022    
O28      O      0.496830000000     0.540730000000     0.456090000000    -0.400582   
O29      O      0.574800000000     0.553370000000     0.457960000000    -0.403082   
O30      O      0.576680000000     0.520270000000     0.589360000000    -0.402448   
O31      O      0.589060000000     0.469150000000     0.507840000000    -0.400571   
O32      O      0.562330000000     0.604360000000     0.539480000000    -0.401568   
O33      O      0.973030000000     0.070670000000     0.022290000000    -0.400379   
O34      O      0.111840000000     0.040280000000     0.040650000000    -0.401536   
O35      O      0.053660000000     0.060070000000     0.964940000000    -0.401498   
O36      O      0.031610000000     0.050910000000     0.098200000000    -0.402046   
O37      O      0.015110000000     0.974940000000     0.091030000000    -0.400064   
O38      O      0.037460000000     0.984040000000     0.957700000000    -0.401127   
O39      O      0.095790000000     0.964230000000     0.033780000000    -0.401897   
O40      O      0.957040000000     0.994590000000     0.015050000000    -0.40171    
O41      O      0.974080000000     0.585020000000     0.989080000000    -0.401234   
O42      O      0.107460000000     0.545870000000     0.021550000000    -0.402671   
O43      O      0.056140000000     0.555800000000     0.939840000000    -0.402253   
O44      O      0.025890000000     0.574880000000     0.070720000000    -0.402515   
O45      O      0.001260000000     0.500860000000     0.075380000000    -0.401869   
O46      O      0.032250000000     0.481590000000     0.944890000000    -0.402349   
O47      O      0.083740000000     0.471580000000     0.026730000000    -0.401251   
O48      O      0.950480000000     0.510660000000     0.993560000000    -0.403281   
O49      O      0.445970000000     0.034840000000     0.931830000000    -0.401848   
O50      O      0.582330000000     0.067480000000     0.959980000000    -0.400643   
O51      O      0.529890000000     0.048790000000     0.879950000000    -0.401944   
O52      O      0.498140000000     0.053410000000     0.011790000000    -0.402819   
O53      O      0.515470000000     0.977520000000     0.017700000000    -0.401986   
O54      O      0.547660000000     0.973010000000     0.886260000000    -0.401343   
O55      O      0.599580000000     0.991570000000     0.966200000000    -0.402134   
O56      O      0.463180000000     0.958950000000     0.937650000000    -0.401957   
O57      O      0.449910000000     0.546530000000     0.024710000000    -0.40263    
O58      O      0.586590000000     0.586980000000     0.011060000000    -0.401312   
O59      O      0.513730000000     0.557820000000     0.951040000000    -0.402473   
O60      O      0.522750000000     0.575750000000     0.084780000000    -0.401281   
O61      O      0.547540000000     0.502060000000     0.092390000000    -0.401929   
O62      O      0.535190000000     0.483130000000     0.958860000000    -0.400524   
O63      O      0.609710000000     0.512630000000     0.017590000000    -0.402565   
O64      O      0.473260000000     0.472520000000     0.033650000000    -0.401652   


