data_structure

_audit_creation_method RASPA-1.0
_audit_creation_date 2023-5-19
_audit_author_name 'Poobodin Mano'

_cell_length_a    30.4454
_cell_length_b    30.4639
_cell_length_c    30.3533
_cell_angle_alpha 89.9998
_cell_angle_beta  89.9998
_cell_angle_gamma 89.9998
_cell_volume      28152.2

_symmetry_cell_setting          triclinic
_symmetry_space_group_name_Hall 'P 1'
_symmetry_space_group_name_H-M  'P 1'
_symmetry_Int_Tables_number     1

_symmetry_equiv_pos_as_xyz 'x,y,z'

loop_
_atom_site_label
_atom_site_type_symbol
_atom_site_fract_x
_atom_site_fract_y
_atom_site_fract_z
_atom_site_charge
C1       C      0.018030000000     0.097670000000     0.506700000000     0.413054   
C2       C      0.016950000000     0.923720000000     0.520530000000     0.413674   
C3       C      0.104600000000     0.009500000000     0.507690000000     0.413647   
C4       C      0.930390000000     0.011380000000     0.518280000000     0.413584   
C5       C      0.018680000000     0.523960000000     0.427690000000     0.413365   
C6       C      0.998240000000     0.497350000000     0.599600000000     0.412845   
C7       C      0.015830000000     0.424480000000     0.500600000000     0.412465   
C8       C      0.001160000000     0.596530000000     0.526040000000     0.413816   
C9       C      0.504710000000     0.021650000000     0.602150000000     0.413679   
C10      C      0.531150000000     0.026380000000     0.429120000000     0.413281   
C11      C      0.604120000000     0.023810000000     0.529140000000     0.41337    
C12      C      0.431550000000     0.025020000000     0.502850000000     0.414093   
C13      C      0.541380000000     0.028330000000     0.100790000000     0.412797   
C14      C      0.525920000000     0.004640000000     0.928000000000     0.413974   
C15      C      0.532270000000     0.102630000000     0.002280000000     0.413364   
C16      C      0.535120000000     0.929730000000     0.025800000000     0.413588   
C17      C      0.023780000000     0.503800000000     0.101300000000     0.41393    
C18      C      0.996220000000     0.494650000000     0.928560000000     0.413131   
C19      C      0.096000000000     0.492890000000     0.001520000000     0.413337   
C20      C      0.923980000000     0.506310000000     0.028880000000     0.41292    
C21      C      0.510320000000     0.428660000000     0.010590000000     0.413585   
C22      C      0.510240000000     0.602820000000     0.020910000000     0.413153   
C23      C      0.423220000000     0.515820000000     0.008370000000     0.413131   
C24      C      0.597350000000     0.515160000000     0.021840000000     0.413042   
C25      C      0.739520000000     0.529550000000     0.029290000000    -0.0423027  
C26      C      0.665990000000     0.516430000000     0.066090000000    -0.019452   
C27      C      0.803610000000     0.485090000000     0.046710000000     0.0152864  
C28      C      0.714050000000     0.505660000000     0.059570000000     0.0155152  
C29      C      0.850820000000     0.472150000000     0.038100000000    -0.019422   
C30      C      0.733910000000     0.471720000000     0.083720000000    -0.0422828  
C31      C      0.778290000000     0.461590000000     0.077410000000    -0.0428687  
C32      C      0.783520000000     0.518630000000     0.022120000000    -0.041795   
C33      C      0.284350000000     0.482970000000     0.996370000000    -0.0421027  
C34      C      0.349270000000     0.508360000000     0.041570000000    -0.0193781  
C35      C      0.214070000000     0.520780000000     0.999170000000     0.0167898  
C36      C      0.301840000000     0.512210000000     0.027570000000     0.0152747  
C37      C      0.167770000000     0.526630000000     0.982440000000    -0.0200566  
C38      C      0.274800000000     0.545180000000     0.045150000000    -0.0422305  
C39      C      0.231220000000     0.549300000000     0.031230000000    -0.0422141  
C40      C      0.240970000000     0.487470000000     0.981990000000    -0.0427081  
C41      C      0.540190000000     0.741890000000     0.032230000000    -0.0422718  
C42      C      0.517810000000     0.676220000000     0.986530000000    -0.0192654  
C43      C      0.503060000000     0.812220000000     0.025350000000     0.0161179  
C44      C      0.513000000000     0.723840000000     0.999510000000     0.0154627  
C45      C      0.496950000000     0.859140000000     0.040140000000    -0.0196091  
C46      C      0.481310000000     0.750580000000     0.979270000000    -0.0424069  
C47      C      0.476520000000     0.794460000000     0.991940000000    -0.0419022  
C48      C      0.534900000000     0.785520000000     0.045420000000    -0.0424742  
C49      C      0.478680000000     0.287750000000     0.951490000000    -0.0424392  
C50      C      0.516790000000     0.359860000000     0.967550000000    -0.0193885  
C51      C      0.499200000000     0.220560000000     0.989620000000     0.0151541  
C52      C      0.510990000000     0.311160000000     0.974690000000     0.015574   
C53      C      0.491360000000     0.172580000000     0.999310000000    -0.0189717  
C54      C      0.537710000000     0.288770000000     0.005000000000    -0.0425293  
C55      C      0.531350000000     0.244060000000     0.012970000000    -0.0419892  
C56      C      0.472900000000     0.242810000000     0.958830000000    -0.0427329  
C57      C      0.463150000000     0.960280000000     0.743640000000    -0.0428405  
C58      C      0.499130000000     0.979050000000     0.671030000000    -0.0190995  
C59      C      0.484840000000     0.995970000000     0.811910000000     0.0153477  
C60      C      0.493220000000     0.986050000000     0.719920000000     0.0151765  
C61      C      0.479860000000     0.001780000000     0.861050000000    -0.0191813  
C62      C      0.519130000000     0.016780000000     0.742640000000    -0.0418634  
C63      C      0.514300000000     0.022340000000     0.788060000000    -0.0421555  
C64      C      0.459030000000     0.965160000000     0.789240000000    -0.0427956  
C65      C      0.504580000000     0.083750000000     0.289790000000    -0.0420907  
C66      C      0.546570000000     0.066980000000     0.359770000000    -0.0197834  
C67      C      0.519450000000     0.044670000000     0.221460000000     0.0152092  
C68      C      0.537630000000     0.059830000000     0.311350000000     0.0160275  
C69      C      0.507280000000     0.034300000000     0.174330000000    -0.0193782  
C70      C      0.561930000000     0.028700000000     0.287410000000    -0.0426664  
C71      C      0.552390000000     0.020620000000     0.243100000000    -0.0418792  
C72      C      0.495630000000     0.076290000000     0.245230000000    -0.0427609  
C73      C      0.981840000000     0.475540000000     0.742300000000    -0.0419859  
C74      C      0.029170000000     0.484390000000     0.674220000000    -0.0201442  
C75      C      0.994960000000     0.518620000000     0.808500000000     0.0162021  
C76      C      0.016540000000     0.497020000000     0.720680000000     0.0163222  
C77      C      0.983640000000     0.529740000000     0.855660000000    -0.0196128  
C78      C      0.040410000000     0.529320000000     0.743450000000    -0.0422187  
C79      C      0.029870000000     0.539860000000     0.787040000000    -0.0420909  
C80      C      0.970730000000     0.486720000000     0.785550000000    -0.0423214  
C81      C      0.036480000000     0.507510000000     0.288510000000    -0.0417097  
C82      C      0.987490000000     0.527810000000     0.352680000000    -0.0191633  
C83      C      0.028520000000     0.542400000000     0.216920000000     0.0161974  
C84      C      0.002550000000     0.533690000000     0.305650000000     0.0151416  
C85      C      0.041610000000     0.545910000000     0.169120000000    -0.0194416  
C86      C      0.981550000000     0.564080000000     0.277950000000    -0.0426633  
C87      C      0.994270000000     0.568240000000     0.233880000000    -0.0417326  
C88      C      0.049730000000     0.512240000000     0.244700000000    -0.0428009  
C89      C      0.244620000000     0.033110000000     0.495220000000    -0.0421536  
C90      C      0.178240000000     0.015390000000     0.541980000000    -0.0192943  
C91      C      0.313750000000     0.994190000000     0.504250000000     0.016365   
C92      C      0.225650000000     0.008230000000     0.529230000000     0.0154145  
C93      C      0.360740000000     0.986430000000     0.490400000000    -0.0195226  
C94      C      0.251310000000     0.976720000000     0.551100000000    -0.0423099  
C95      C      0.295080000000     0.969920000000     0.538860000000    -0.0420635  
C96      C      0.288050000000     0.025670000000     0.482390000000    -0.0424786  
C97      C      0.791390000000     0.977020000000     0.580240000000    -0.0423091  
C98      C      0.861610000000     0.017450000000     0.561510000000    -0.0195153  
C99      C      0.722690000000     0.993320000000     0.542710000000     0.0152379  
C100     C      0.813140000000     0.009050000000     0.555120000000     0.015548   
C101     C      0.674600000000     0.983880000000     0.534960000000    -0.0191608  
C102     C      0.789200000000     0.033360000000     0.523970000000    -0.0424235  
C103     C      0.744610000000     0.024950000000     0.517210000000    -0.0419482  
C104     C      0.746520000000     0.969280000000     0.574160000000    -0.0428559  
C105     C      0.992050000000     0.740500000000     0.545660000000    -0.0426155  
C106     C      0.033740000000     0.668740000000     0.545360000000    -0.020076   
C107     C      0.015490000000     0.802520000000     0.501090000000     0.0153055  
C108     C      0.026920000000     0.715110000000     0.529270000000     0.0166447  
C109     C      0.010010000000     0.849790000000     0.487350000000    -0.0190489  
C110     C      0.055970000000     0.733780000000     0.498580000000    -0.0421595  
C111     C      0.050440000000     0.777220000000     0.484770000000    -0.0420557  
C112     C      0.986130000000     0.783690000000     0.531350000000    -0.0422184  
C113     C      0.036280000000     0.239210000000     0.499300000000    -0.0423123  
C114     C      0.021670000000     0.166070000000     0.462310000000    -0.0194964  
C115     C      0.993990000000     0.304490000000     0.480990000000     0.0152339  
C116     C      0.012320000000     0.214440000000     0.468500000000     0.0155152  
C117     C      0.981520000000     0.351760000000     0.489800000000    -0.0194254  
C118     C      0.979560000000     0.235270000000     0.443540000000    -0.0422418  
C119     C      0.970540000000     0.279870000000     0.449680000000    -0.0428962  
C120     C      0.026430000000     0.283470000000     0.506300000000    -0.0416373  
Cu1      Cu     0.019980000000     0.013930000000     0.553880000000     0.848467   
Cu2      Cu     0.015050000000     0.007360000000     0.472680000000     0.84769    
Cu3      Cu     0.048730000000     0.513140000000     0.518760000000     0.845997   
Cu4      Cu     0.968250000000     0.507840000000     0.508400000000     0.848352   
Cu5      Cu     0.517810000000     0.983600000000     0.514430000000     0.848121   
Cu6      Cu     0.517970000000     0.064870000000     0.516910000000     0.848759   
Cu7      Cu     0.574180000000     0.016400000000     0.010620000000     0.850333   
Cu8      Cu     0.493170000000     0.016110000000     0.018130000000     0.84558    
Cu9      Cu     0.007200000000     0.458990000000     0.017550000000     0.849981   
Cu10     Cu     0.012670000000     0.539910000000     0.012380000000     0.843844   
Cu11     Cu     0.507020000000     0.513350000000     0.056050000000     0.847023   
Cu12     Cu     0.513500000000     0.518120000000     0.974840000000     0.848135   
H1       H      0.867530000000     0.541940000000     0.040550000000     0.101487   
H2       H      0.650440000000     0.494260000000     0.090710000000     0.0451695  
H3       H      0.663380000000     0.550380000000     0.079260000000     0.0408335  
H4       H      0.801870000000     0.536490000000     0.997360000000     0.0411245  
H5       H      0.725110000000     0.556170000000     0.010560000000     0.0400067  
H6       H      0.862880000000     0.449040000000     0.063800000000     0.0441558  
H7       H      0.715070000000     0.452900000000     0.107370000000     0.0389242  
H8       H      0.792720000000     0.435030000000     0.096220000000     0.0386769  
H9       H      0.852590000000     0.454170000000     0.006280000000     0.0432924  
H10      H      0.659230000000     0.514350000000     0.994550000000     0.101888   
H11      H      0.153830000000     0.457820000000     0.995400000000     0.101578   
H12      H      0.357420000000     0.531930000000     0.068360000000     0.0443975  
H13      H      0.355070000000     0.474810000000     0.054780000000     0.0425671  
H14      H      0.228450000000     0.465170000000     0.957180000000     0.039207   
H15      H      0.304590000000     0.457130000000     0.982610000000     0.0408004  
H16      H      0.153590000000     0.558060000000     0.994520000000     0.0471057  
H17      H      0.287480000000     0.567970000000     0.069410000000     0.0391818  
H18      H      0.211090000000     0.575190000000     0.045040000000     0.039831   
H19      H      0.168740000000     0.529000000000     0.945920000000     0.0383862  
H20      H      0.365780000000     0.518620000000     0.972370000000     0.102232   
H21      H      0.566990000000     0.870080000000     0.030680000000     0.10181    
H22      H      0.495020000000     0.667260000000     0.959310000000     0.0442975  
H23      H      0.551760000000     0.670690000000     0.974230000000     0.0422595  
H24      H      0.555610000000     0.798470000000     0.071360000000     0.0393838  
H25      H      0.565080000000     0.721930000000     0.048040000000     0.0407182  
H26      H      0.467510000000     0.873990000000     0.024330000000     0.046415   
H27      H      0.460120000000     0.737490000000     0.953790000000     0.0390494  
H28      H      0.451760000000     0.814400000000     0.975930000000     0.0394284  
H29      H      0.490690000000     0.859410000000     0.076210000000     0.0389693  
H30      H      0.506230000000     0.660800000000     0.055770000000     0.102107   
H31      H      0.561590000000     0.162230000000     0.988390000000     0.102142   
H32      H      0.550750000000     0.366060000000     0.955620000000     0.0423715  
H33      H      0.493980000000     0.372560000000     0.941910000000     0.0444892  
H34      H      0.447540000000     0.225530000000     0.940790000000     0.0385348  
H35      H      0.457730000000     0.304270000000     0.927890000000     0.0389171  
H36      H      0.477900000000     0.169300000000     0.033200000000     0.0427271  
H37      H      0.562960000000     0.306160000000     0.023110000000     0.040976   
H38      H      0.551520000000     0.227780000000     0.037410000000     0.0413918  
H39      H      0.466150000000     0.158590000000     0.976770000000     0.0434801  
H40      H      0.507270000000     0.367020000000     0.038470000000     0.102117   
H41      H      0.551160000000     0.994550000000     0.865680000000     0.102463   
H42      H      0.531460000000     0.962960000000     0.665540000000     0.0434932  
H43      H      0.473820000000     0.956360000000     0.657570000000     0.0432277  
H44      H      0.435700000000     0.944800000000     0.806800000000     0.0382343  
H45      H      0.443110000000     0.936060000000     0.726960000000     0.0381751  
H46      H      0.464500000000     0.034230000000     0.867700000000     0.0427744  
H47      H      0.543060000000     0.036540000000     0.725210000000     0.0417882  
H48      H      0.534030000000     0.046830000000     0.804720000000     0.0417865  
H49      H      0.457310000000     0.976700000000     0.875150000000     0.0433974  
H50      H      0.493160000000     0.050190000000     0.662850000000     0.102136   
H51      H      0.577040000000     0.039410000000     0.157720000000     0.101639   
H52      H      0.581780000000     0.075630000000     0.363960000000     0.0398915  
H53      H      0.526840000000     0.094730000000     0.373090000000     0.046124   
H54      H      0.469610000000     0.094800000000     0.229520000000     0.0385826  
H55      H      0.485400000000     0.107940000000     0.307510000000     0.0394015  
H56      H      0.491690000000     0.001320000000     0.173170000000     0.0426399  
H57      H      0.587690000000     0.009990000000     0.303330000000     0.0395861  
H58      H      0.570570000000     0.995400000000     0.225780000000     0.0409251  
H59      H      0.482260000000     0.057820000000     0.161770000000     0.044106   
H60      H      0.539340000000     0.996420000000     0.368820000000     0.101777   
H61      H      0.986180000000     0.460010000000     0.871070000000     0.101699   
H62      H      0.058770000000     0.502730000000     0.663090000000     0.0467915  
H63      H      0.037730000000     0.448930000000     0.674020000000     0.0395386  
H64      H      0.943540000000     0.470050000000     0.801360000000     0.0394573  
H65      H      0.963360000000     0.450060000000     0.725700000000     0.0392117  
H66      H      0.003600000000     0.557900000000     0.867680000000     0.0461218  
H67      H      0.067530000000     0.546140000000     0.727680000000     0.0392341  
H68      H      0.049030000000     0.564610000000     0.803990000000     0.0392692  
H69      H      0.948740000000     0.540330000000     0.857150000000     0.0393898  
H70      H      0.960280000000     0.488050000000     0.655130000000     0.101313   
H71      H      0.030290000000     0.475690000000     0.162770000000     0.102199   
H72      H      0.961880000000     0.552250000000     0.361760000000     0.0434293  
H73      H      0.972100000000     0.494860000000     0.355880000000     0.043908   
H74      H      0.076110000000     0.491870000000     0.232220000000     0.0397405  
H75      H      0.052670000000     0.483350000000     0.309060000000     0.0417286  
H76      H      0.025770000000     0.574770000000     0.153220000000     0.0463597  
H77      H      0.954950000000     0.584260000000     0.290240000000     0.0389737  
H78      H      0.977240000000     0.591520000000     0.213010000000     0.0399831  
H79      H      0.077650000000     0.551370000000     0.167110000000     0.0390915  
H80      H      0.055810000000     0.537880000000     0.372410000000     0.102018   
H81      H      0.372250000000     0.056800000000     0.495070000000     0.101857   
H82      H      0.168200000000     0.993570000000     0.569600000000     0.0445527  
H83      H      0.174250000000     0.049760000000     0.553640000000     0.0420434  
H84      H      0.301690000000     0.044630000000     0.455470000000     0.0393623  
H85      H      0.225570000000     0.057880000000     0.478190000000     0.0405862  
H86      H      0.375140000000     0.958100000000     0.508480000000     0.0464649  
H87      H      0.237510000000     0.957320000000     0.577600000000     0.0390087  
H88      H      0.314240000000     0.945470000000     0.556240000000     0.039391   
H89      H      0.361250000000     0.977610000000     0.454880000000     0.0394652  
H90      H      0.162390000000     0.004090000000     0.472760000000     0.102024   
H91      H      0.663200000000     0.054330000000     0.542340000000     0.10205    
H92      H      0.866160000000     0.051930000000     0.572570000000     0.0419776  
H93      H      0.875670000000     0.995970000000     0.587600000000     0.0450303  
H94      H      0.730500000000     0.944320000000     0.593830000000     0.038588   
H95      H      0.809100000000     0.957930000000     0.604540000000     0.0389567  
H96      H      0.670670000000     0.967860000000     0.502280000000     0.043189   
H97      H      0.805220000000     0.058450000000     0.504440000000     0.040604   
H98      H      0.727130000000     0.043350000000     0.492200000000     0.0413273  
H99      H      0.661650000000     0.960290000000     0.559740000000     0.0432245  
H100     H      0.868690000000     0.008420000000     0.490500000000     0.101984   
H101     H      0.019610000000     0.866340000000     0.556600000000     0.102302   
H102     H      0.065550000000     0.655260000000     0.533420000000     0.0471045  
H103     H      0.034990000000     0.669210000000     0.581960000000     0.0390805  
H104     H      0.959020000000     0.802710000000     0.544380000000     0.0407455  
H105     H      0.969470000000     0.726880000000     0.569620000000     0.0392984  
H106     H      0.033170000000     0.858600000000     0.460400000000     0.0444826  
H107     H      0.083200000000     0.714910000000     0.485590000000     0.0400596  
H108     H      0.073560000000     0.791090000000     0.461500000000     0.0394961  
H109     H      0.976410000000     0.854670000000     0.473840000000     0.0421593  
H110     H      0.965560000000     0.654140000000     0.529540000000     0.101651   
H111     H      0.051640000000     0.367630000000     0.491510000000     0.101348   
H112     H      0.999420000000     0.151140000000     0.437370000000     0.0452742  
H113     H      0.055750000000     0.162350000000     0.449700000000     0.0408539  
H114     H      0.044130000000     0.301210000000     0.531610000000     0.0408534  
H115     H      0.062040000000     0.224040000000     0.518640000000     0.0400724  
H116     H      0.959620000000     0.364510000000     0.463370000000     0.0440532  
H117     H      0.960720000000     0.216990000000     0.419470000000     0.0388902  
H118     H      0.944750000000     0.295010000000     0.430350000000     0.0384372  
H119     H      0.962240000000     0.353320000000     0.520870000000     0.0431378  
H120     H      0.018180000000     0.159580000000     0.533820000000     0.10185    
N1       N      0.880240000000     0.510300000000     0.036450000000    -0.213402   
N2       N      0.641840000000     0.514570000000     0.024280000000    -0.213387   
N3       N      0.139930000000     0.489220000000     0.994680000000    -0.212554   
N4       N      0.378870000000     0.515350000000     0.004080000000    -0.213492   
N5       N      0.536280000000     0.885500000000     0.031100000000    -0.212932   
N6       N      0.510360000000     0.647210000000     0.024370000000    -0.213547   
N7       N      0.531820000000     0.146670000000     0.995680000000    -0.213605   
N8       N      0.510450000000     0.384190000000     0.008770000000    -0.213617   
N9       N      0.522310000000     0.999230000000     0.883810000000    -0.21369    
N10      N      0.498180000000     0.020470000000     0.646340000000    -0.213712   
N11      N      0.545500000000     0.034800000000     0.144840000000    -0.2134     
N12      N      0.538070000000     0.026750000000     0.384960000000    -0.21316    
N13      N      0.989420000000     0.491490000000     0.884480000000    -0.212941   
N14      N      0.992490000000     0.490880000000     0.643490000000    -0.212718   
N15      N      0.030780000000     0.505360000000     0.145410000000    -0.213044   
N16      N      0.024180000000     0.530800000000     0.383880000000    -0.213626   
N17      N      0.387400000000     0.026030000000     0.496860000000    -0.213099   
N18      N      0.148990000000     0.008660000000     0.504180000000    -0.213667   
N19      N      0.648080000000     0.024080000000     0.536310000000    -0.213862   
N20      N      0.885890000000     0.011470000000     0.520190000000    -0.213509   
N21      N      0.016520000000     0.879420000000     0.524860000000    -0.213552   
N22      N      0.996980000000     0.640470000000     0.532200000000    -0.212696   
N23      N      0.019930000000     0.380680000000     0.493550000000    -0.213421   
N24      N      0.018360000000     0.142130000000     0.504140000000    -0.213347   
O1       O      0.019250000000     0.079750000000     0.544860000000    -0.404321   
O2       O      0.020120000000     0.947380000000     0.555300000000    -0.403882   
O3       O      0.086380000000     0.013630000000     0.545630000000    -0.39965    
O4       O      0.953120000000     0.013800000000     0.553840000000    -0.399693   
O5       O      0.948980000000     0.008800000000     0.480490000000    -0.404052   
O6       O      0.081550000000     0.006060000000     0.472550000000    -0.404392   
O7       O      0.014080000000     0.941250000000     0.482170000000    -0.399521   
O8       O      0.016590000000     0.074320000000     0.471480000000    -0.398961   
O9       O      0.052450000000     0.524480000000     0.452920000000    -0.402052   
O10      O      0.037100000000     0.501390000000     0.583690000000    -0.400441   
O11      O      0.050540000000     0.447460000000     0.507060000000    -0.401827   
O12      O      0.039030000000     0.578300000000     0.529150000000    -0.401004   
O13      O      0.966760000000     0.573900000000     0.517200000000    -0.402145   
O14      O      0.977610000000     0.442260000000     0.500560000000    -0.400912   
O15      O      0.964300000000     0.499300000000     0.574650000000    -0.402153   
O16      O      0.980070000000     0.517020000000     0.443190000000    -0.40093    
O17      O      0.508720000000     0.985640000000     0.580590000000    -0.40242    
O18      O      0.526970000000     0.989300000000     0.448590000000    -0.403973   
O19      O      0.583840000000     0.987250000000     0.523790000000    -0.400766   
O20      O      0.451780000000     0.988120000000     0.505220000000    -0.400523   
O21      O      0.452330000000     0.061460000000     0.506200000000    -0.403231   
O22      O      0.583540000000     0.060500000000     0.527910000000    -0.403353   
O23      O      0.528990000000     0.062590000000     0.450700000000    -0.399564   
O24      O      0.506920000000     0.058950000000     0.582690000000    -0.401313   
O25      O      0.576080000000     0.026460000000     0.076890000000    -0.401625   
O26      O      0.564300000000     0.006400000000     0.945260000000    -0.40231    
O27      O      0.569050000000     0.082180000000     0.000950000000    -0.40236    
O28      O      0.571350000000     0.950520000000     0.020500000000    -0.402186   
O29      O      0.498180000000     0.950050000000     0.026020000000    -0.401126   
O30      O      0.496150000000     0.082150000000     0.009580000000    -0.401387   
O31      O      0.491190000000     0.008180000000     0.951710000000    -0.401468   
O32      O      0.503030000000     0.024290000000     0.083720000000    -0.401595   
O33      O      0.016820000000     0.466420000000     0.083220000000    -0.403196   
O34      O      0.998180000000     0.459280000000     0.951350000000    -0.403155   
O35      O      0.073370000000     0.458010000000     0.008260000000    -0.401118   
O36      O      0.941570000000     0.468080000000     0.026440000000    -0.399819   
O37      O      0.947100000000     0.541200000000     0.024450000000    -0.402628   
O38      O      0.077740000000     0.530850000000     0.001040000000    -0.40153    
O39      O      0.000580000000     0.532440000000     0.946790000000    -0.399529   
O40      O      0.024240000000     0.539240000000     0.078400000000    -0.399826   
O41      O      0.507790000000     0.447300000000     0.048340000000    -0.404084   
O42      O      0.506510000000     0.579870000000     0.056090000000    -0.40385    
O43      O      0.440820000000     0.512970000000     0.046710000000    -0.399165   
O44      O      0.574040000000     0.514050000000     0.057110000000    -0.398862   
O45      O      0.579360000000     0.516750000000     0.983730000000    -0.404287   
O46      O      0.446870000000     0.518850000000     0.973570000000    -0.403541   
O47      O      0.513930000000     0.584500000000     0.982980000000    -0.399357   
O48      O      0.512810000000     0.451290000000     0.974980000000    -0.399585   


