data_structure

_audit_creation_method RASPA-1.0
_audit_creation_date 2023-5-23
_audit_author_name 'Poobodin Mano'

_cell_length_a    29.6239
_cell_length_b    29.5894
_cell_length_c    29.662
_cell_angle_alpha 89.9998
_cell_angle_beta  89.9998
_cell_angle_gamma 89.9998
_cell_volume      26000.3

_symmetry_cell_setting          triclinic
_symmetry_space_group_name_Hall 'P 1'
_symmetry_space_group_name_H-M  'P 1'
_symmetry_Int_Tables_number     1

_symmetry_equiv_pos_as_xyz 'x,y,z'

loop_
_atom_site_label
_atom_site_type_symbol
_atom_site_fract_x
_atom_site_fract_y
_atom_site_fract_z
_atom_site_charge
C1       C      0.085250000000     0.998340000000     0.996960000000     0.401618   
C2       C      0.906590000000     0.998340000000     0.996950000000     0.401664   
C3       C      0.995870000000     0.087660000000     0.996690000000     0.402421   
C4       C      0.995890000000     0.909010000000     0.997200000000     0.4025     
C5       C      0.089930000000     0.998020000000     0.496870000000     0.403736   
C6       C      0.910840000000     0.998050000000     0.496890000000     0.4037     
C7       C      0.001090000000     0.087320000000     0.505600000000     0.402657   
C8       C      0.001050000000     0.908740000000     0.488150000000     0.402663   
C9       C      0.995680000000     0.499470000000     0.907250000000     0.402726   
C10      C      0.995670000000     0.497190000000     0.086310000000     0.402502   
C11      C      0.995730000000     0.408760000000     0.995870000000     0.403877   
C12      C      0.995710000000     0.587920000000     0.997700000000     0.403815   
C13      C      0.995950000000     0.502080000000     0.586230000000     0.402511   
C14      C      0.995960000000     0.493990000000     0.407320000000     0.402491   
C15      C      0.996160000000     0.587670000000     0.492300000000     0.402586   
C16      C      0.996160000000     0.408390000000     0.501250000000     0.402395   
C17      C      0.495960000000     0.995560000000     0.086580000000     0.402617   
C18      C      0.495960000000     0.001030000000     0.907590000000     0.40301    
C19      C      0.585520000000     0.998290000000     0.997080000000     0.402498   
C20      C      0.406320000000     0.998320000000     0.997080000000     0.402866   
C21      C      0.500140000000     0.002120000000     0.586610000000     0.403343   
C22      C      0.500150000000     0.994430000000     0.407550000000     0.403094   
C23      C      0.589930000000     0.998270000000     0.497090000000     0.404189   
C24      C      0.410660000000     0.998260000000     0.497080000000     0.404432   
C25      C      0.500820000000     0.044640000000     0.659840000000    -0.0226022  
C26      C      0.493990000000     0.961520000000     0.833610000000    -0.0225823  
C27      C      0.498800000000     0.043520000000     0.834740000000    -0.0224508  
C28      C      0.498300000000     0.026520000000     0.787610000000     0.013222   
C29      C      0.495820000000     0.979750000000     0.787170000000     0.0140634  
C30      C      0.495480000000     0.955340000000     0.746810000000    -0.066601   
C31      C      0.497800000000     0.962540000000     0.660240000000    -0.0225307  
C32      C      0.500070000000     0.051560000000     0.747400000000    -0.0656058  
C33      C      0.497470000000     0.980270000000     0.706790000000     0.0139507  
C34      C      0.499460000000     0.027070000000     0.706860000000     0.0133602  
C35      C      0.498800000000     0.953070000000     0.159420000000    -0.0223532  
C36      C      0.497810000000     0.034010000000     0.333940000000    -0.0224413  
C37      C      0.500820000000     0.951920000000     0.334320000000    -0.0224294  
C38      C      0.499470000000     0.969500000000     0.287300000000     0.0129596  
C39      C      0.497490000000     0.016300000000     0.287380000000     0.0142978  
C40      C      0.495490000000     0.041230000000     0.247360000000    -0.0668052  
C41      C      0.494000000000     0.035070000000     0.160560000000    -0.0225815  
C42      C      0.500070000000     0.945010000000     0.246750000000    -0.0653793  
C43      C      0.495830000000     0.016840000000     0.207000000000     0.0144472  
C44      C      0.498310000000     0.970060000000     0.206560000000     0.0128593  
C45      C      0.036560000000     0.496770000000     0.833790000000    -0.0225012  
C46      C      0.955170000000     0.507890000000     0.659620000000    -0.0224832  
C47      C      0.036810000000     0.499680000000     0.659670000000    -0.0224914  
C48      C      0.019220000000     0.501130000000     0.706450000000     0.0137694  
C49      C      0.972670000000     0.505820000000     0.706440000000     0.0134746  
C50      C      0.948010000000     0.507530000000     0.746740000000    -0.0659868  
C51      C      0.954920000000     0.505020000000     0.833840000000    -0.022511   
C52      C      0.043740000000     0.497880000000     0.746730000000    -0.0661847  
C53      C      0.972540000000     0.504340000000     0.787030000000     0.0134715  
C54      C      0.019100000000     0.499650000000     0.787020000000     0.0137771  
C55      C      0.036820000000     0.496480000000     0.333880000000    -0.0225277  
C56      C      0.954910000000     0.491560000000     0.159710000000    -0.0225269  
C57      C      0.036550000000     0.499820000000     0.159770000000    -0.022486   
C58      C      0.019090000000     0.496830000000     0.206540000000     0.0137805  
C59      C      0.972540000000     0.492120000000     0.206510000000     0.0134841  
C60      C      0.948010000000     0.488830000000     0.246800000000    -0.0659791  
C61      C      0.955180000000     0.488260000000     0.333920000000    -0.0224825  
C62      C      0.043740000000     0.498490000000     0.246830000000    -0.0661871  
C63      C      0.972670000000     0.490450000000     0.287100000000     0.0134711  
C64      C      0.019230000000     0.495140000000     0.287100000000     0.0137933  
C65      C      0.163210000000     0.021830000000     0.463470000000    -0.0226436  
C66      C      0.337380000000     0.965770000000     0.522200000000    -0.0227679  
C67      C      0.337360000000     0.030690000000     0.471920000000    -0.0227924  
C68      C      0.290560000000     0.015570000000     0.481350000000     0.0145177  
C69      C      0.290570000000     0.980790000000     0.512670000000     0.0141494  
C70      C      0.250290000000     0.964800000000     0.531660000000    -0.0660664  
C71      C      0.163210000000     0.974240000000     0.530310000000    -0.0226511  
C72      C      0.250290000000     0.031470000000     0.462280000000    -0.0662491  
C73      C      0.210010000000     0.983130000000     0.514920000000     0.014112   
C74      C      0.210010000000     0.013030000000     0.478940000000     0.0144323  
C75      C      0.663280000000     0.963750000000     0.519350000000    -0.0227553  
C76      C      0.837500000000     0.025540000000     0.466420000000    -0.0227333  
C77      C      0.837500000000     0.970640000000     0.527420000000    -0.022751   
C78      C      0.790680000000     0.981350000000     0.513250000000     0.0139495  
C79      C      0.790680000000     0.014920000000     0.480660000000     0.0142602  
C80      C      0.750400000000     0.034800000000     0.465790000000    -0.0662442  
C81      C      0.663290000000     0.032740000000     0.474800000000    -0.0227003  
C82      C      0.750390000000     0.961540000000     0.528200000000    -0.0661191  
C83      C      0.710100000000     0.016970000000     0.483040000000     0.0143131  
C84      C      0.710100000000     0.979450000000     0.511020000000     0.0140273  
C85      C      0.031560000000     0.661020000000     0.512160000000    -0.0231374  
C86      C      0.976950000000     0.836060000000     0.452280000000    -0.0228755  
C87      C      0.029980000000     0.834890000000     0.514810000000    -0.0234296  
C88      C      0.018930000000     0.788390000000     0.500370000000     0.0152999  
C89      C      0.986330000000     0.788750000000     0.466870000000     0.013189   
C90      C      0.965380000000     0.748500000000     0.452820000000    -0.0651314  
C91      C      0.964060000000     0.661190000000     0.465550000000    -0.0227115  
C92      C      0.036730000000     0.748000000000     0.517250000000    -0.0670718  
C93      C      0.981380000000     0.708010000000     0.471850000000     0.013088   
C94      C      0.018020000000     0.707820000000     0.500910000000     0.015188   
C95      C      0.964040000000     0.334870000000     0.528020000000    -0.0227943  
C96      C      0.030050000000     0.161150000000     0.478930000000    -0.0234066  
C97      C      0.976990000000     0.160020000000     0.541430000000    -0.0228095  
C98      C      0.986350000000     0.207320000000     0.526800000000     0.0131819  
C99      C      0.018980000000     0.207670000000     0.493320000000     0.0152912  
C100     C      0.036760000000     0.248050000000     0.476410000000    -0.0670559  
C101     C      0.031560000000     0.335030000000     0.481430000000    -0.0231033  
C102     C      0.965380000000     0.247580000000     0.540820000000    -0.0651602  
C103     C      0.018020000000     0.288230000000     0.492710000000     0.0151647  
C104     C      0.981380000000     0.288050000000     0.521750000000     0.0131329  
C105     C      0.158650000000     0.025240000000     0.966000000000    -0.0228284  
C106     C      0.332910000000     0.964160000000     0.019820000000    -0.0227937  
C107     C      0.332940000000     0.032490000000     0.974280000000    -0.0227932  
C108     C      0.286090000000     0.016870000000     0.982760000000     0.0139735  
C109     C      0.286080000000     0.979780000000     0.011300000000     0.0142953  
C110     C      0.245760000000     0.962200000000     0.028790000000    -0.0662651  
C111     C      0.158620000000     0.971410000000     0.027940000000    -0.0228588  
C112     C      0.245790000000     0.034440000000     0.965230000000    -0.0660614  
C113     C      0.205460000000     0.981810000000     0.013560000000     0.0142478  
C114     C      0.205480000000     0.014830000000     0.980420000000     0.0139267  
C115     C      0.658910000000     0.964790000000     0.973330000000    -0.0226291  
C116     C      0.833210000000     0.024640000000     0.028450000000    -0.0228508  
C117     C      0.833190000000     0.972040000000     0.965470000000    -0.0227074  
C118     C      0.786360000000     0.982180000000     0.980060000000     0.0134968  
C119     C      0.786370000000     0.014470000000     0.013910000000     0.0146117  
C120     C      0.746070000000     0.033660000000     0.029640000000    -0.0664541  
C121     C      0.658920000000     0.031790000000     0.020790000000    -0.0228331  
C122     C      0.746050000000     0.962970000000     0.964370000000    -0.0658029  
C123     C      0.705760000000     0.016460000000     0.011790000000     0.0146801  
C124     C      0.705750000000     0.980140000000     0.982280000000     0.0135466  
C125     C      0.962030000000     0.661340000000     0.021200000000    -0.0226524  
C126     C      0.022280000000     0.835540000000     0.966050000000    -0.022574   
C127     C      0.969310000000     0.835730000000     0.028690000000    -0.022753   
C128     C      0.979490000000     0.788840000000     0.014290000000     0.0143734  
C129     C      0.012000000000     0.788740000000     0.980670000000     0.0138739  
C130     C      0.031330000000     0.748380000000     0.965240000000    -0.0661157  
C131     C      0.029450000000     0.661270000000     0.974430000000    -0.0225194  
C132     C      0.960150000000     0.748560000000     0.029930000000    -0.0663438  
C133     C      0.014010000000     0.708120000000     0.983100000000     0.0139385  
C134     C      0.977440000000     0.708190000000     0.012270000000     0.0144066  
C135     C      0.962070000000     0.335320000000     0.972410000000    -0.0225575  
C136     C      0.022240000000     0.161170000000     0.027810000000    -0.0227519  
C137     C      0.969280000000     0.160920000000     0.965170000000    -0.0225801  
C138     C      0.979470000000     0.207830000000     0.979520000000     0.0136331  
C139     C      0.011980000000     0.207950000000     0.013140000000     0.01462    
C140     C      0.031320000000     0.248330000000     0.028510000000    -0.0665368  
C141     C      0.029480000000     0.335430000000     0.019200000000    -0.022627   
C142     C      0.960140000000     0.248090000000     0.963810000000    -0.0659415  
C143     C      0.014020000000     0.288570000000     0.010590000000     0.0146656  
C144     C      0.977460000000     0.288480000000     0.981420000000     0.0136872  
Cu1      Cu     0.995920000000     0.998240000000     0.955720000000     0.83677    
Cu2      Cu     0.995920000000     0.998440000000     0.038180000000     0.837029   
Cu3      Cu     0.000370000000     0.002710000000     0.455530000000     0.842941   
Cu4      Cu     0.000370000000     0.993350000000     0.538220000000     0.842497   
Cu5      Cu     0.037350000000     0.498340000000     0.996780000000     0.844232   
Cu6      Cu     0.954010000000     0.498330000000     0.996780000000     0.842394   
Cu7      Cu     0.037580000000     0.498030000000     0.496780000000     0.847656   
Cu8      Cu     0.954260000000     0.498030000000     0.496770000000     0.835643   
Cu9      Cu     0.495910000000     0.956580000000     0.995980000000     0.84239    
Cu10     Cu     0.495930000000     0.040020000000     0.998190000000     0.842466   
Cu11     Cu     0.500280000000     0.956480000000     0.499530000000     0.845655   
Cu12     Cu     0.500280000000     0.040060000000     0.494640000000     0.84573    
H1       H      0.469500000000     0.066000000000     0.841400000000     0.0433545  
H2       H      0.462130000000     0.942570000000     0.839490000000     0.0441728  
H3       H      0.493780000000     0.918790000000     0.746550000000     0.0441382  
H4       H      0.501860000000     0.088090000000     0.747660000000     0.0443674  
H5       H      0.471200000000     0.066500000000     0.652610000000     0.0438286  
H6       H      0.527700000000     0.940640000000     0.654320000000     0.0442067  
H7       H      0.530370000000     0.062450000000     0.842020000000     0.0442428  
H8       H      0.523000000000     0.938690000000     0.840420000000     0.0435198  
H9       H      0.466760000000     0.942680000000     0.653090000000     0.0438592  
H10      H      0.532140000000     0.064310000000     0.653530000000     0.0434583  
H11      H      0.532140000000     0.932240000000     0.340620000000     0.043402   
H12      H      0.527720000000     0.055910000000     0.339860000000     0.0442174  
H13      H      0.493790000000     0.077780000000     0.247630000000     0.0442115  
H14      H      0.501850000000     0.908480000000     0.246480000000     0.0443141  
H15      H      0.530360000000     0.934130000000     0.152130000000     0.0442317  
H16      H      0.462140000000     0.054030000000     0.154690000000     0.0442371  
H17      H      0.471200000000     0.930050000000     0.341540000000     0.0437642  
H18      H      0.466780000000     0.053880000000     0.341090000000     0.0438747  
H19      H      0.523010000000     0.057890000000     0.153750000000     0.0435831  
H20      H      0.469490000000     0.930600000000     0.152760000000     0.0433436  
H21      H      0.054770000000     0.467390000000     0.652900000000     0.0443255  
H22      H      0.931170000000     0.479830000000     0.652820000000     0.0438135  
H23      H      0.911640000000     0.511030000000     0.746750000000     0.0442624  
H24      H      0.080080000000     0.494060000000     0.746720000000     0.0442934  
H25      H      0.054190000000     0.464150000000     0.839720000000     0.0440888  
H26      H      0.937260000000     0.537320000000     0.841230000000     0.0440705  
H27      H      0.060330000000     0.528200000000     0.653160000000     0.0433888  
H28      H      0.937800000000     0.540530000000     0.653080000000     0.0438541  
H29      H      0.931150000000     0.476580000000     0.839810000000     0.0435983  
H30      H      0.060330000000     0.524880000000     0.841140000000     0.0435818  
H31      H      0.060330000000     0.471730000000     0.152350000000     0.0436106  
H32      H      0.937240000000     0.459280000000     0.152250000000     0.0441148  
H33      H      0.911640000000     0.485320000000     0.246790000000     0.0442731  
H34      H      0.080080000000     0.502320000000     0.246850000000     0.0443068  
H35      H      0.060330000000     0.467930000000     0.340320000000     0.0433942  
H36      H      0.931170000000     0.516300000000     0.340790000000     0.0438228  
H37      H      0.054170000000     0.532460000000     0.153910000000     0.044104   
H38      H      0.931140000000     0.520010000000     0.153810000000     0.0436163  
H39      H      0.937830000000     0.455600000000     0.340390000000     0.0438583  
H40      H      0.054790000000     0.528740000000     0.340720000000     0.0443466  
H41      H      0.342940000000     0.065680000000     0.484340000000     0.045827   
H42      H      0.345050000000     0.966960000000     0.558860000000     0.0409375  
H43      H      0.250300000000     0.939490000000     0.558010000000     0.0443768  
H44      H      0.250280000000     0.056780000000     0.435930000000     0.0444455  
H45      H      0.155460000000     0.058580000000     0.463070000000     0.0403752  
H46      H      0.155530000000     0.937470000000     0.530680000000     0.0403474  
H47      H      0.345110000000     0.029530000000     0.435280000000     0.0409972  
H48      H      0.343050000000     0.930780000000     0.509800000000     0.0458081  
H49      H      0.157540000000     0.988140000000     0.564650000000     0.0459671  
H50      H      0.157630000000     0.007900000000     0.429120000000     0.0460001  
H51      H      0.845070000000     0.934060000000     0.523520000000     0.041297   
H52      H      0.843180000000     0.015730000000     0.430700000000     0.045886   
H53      H      0.750400000000     0.062620000000     0.442090000000     0.0446115  
H54      H      0.750380000000     0.933730000000     0.551900000000     0.0445728  
H55      H      0.657530000000     0.929930000000     0.504100000000     0.0457456  
H56      H      0.657620000000     0.066570000000     0.490060000000     0.0457287  
H57      H      0.843250000000     0.980440000000     0.563130000000     0.0458554  
H58      H      0.845140000000     0.062110000000     0.470300000000     0.0413164  
H59      H      0.655650000000     0.034630000000     0.438160000000     0.0414695  
H60      H      0.655690000000     0.961890000000     0.555990000000     0.0414375  
H61      H      0.066670000000     0.841920000000     0.511410000000     0.0408679  
H62      H      0.988530000000     0.841730000000     0.417110000000     0.0450922  
H63      H      0.937950000000     0.748700000000     0.428720000000     0.0445091  
H64      H      0.063480000000     0.747850000000     0.542120000000     0.0445185  
H65      H      0.065540000000     0.653230000000     0.498300000000     0.046145   
H66      H      0.929630000000     0.657530000000     0.479960000000     0.0453006  
H67      H      0.019930000000     0.840510000000     0.550490000000     0.0470727  
H68      H      0.940420000000     0.844290000000     0.454500000000     0.0407675  
H69      H      0.963020000000     0.651660000000     0.429330000000     0.0414198  
H70      H      0.032090000000     0.655380000000     0.549200000000     0.0417907  
H71      H      0.940460000000     0.151770000000     0.539200000000     0.040758   
H72      H      0.020030000000     0.155500000000     0.443250000000     0.0470868  
H73      H      0.063530000000     0.248190000000     0.451560000000     0.0445199  
H74      H      0.937940000000     0.247390000000     0.564900000000     0.04453    
H75      H      0.929620000000     0.338520000000     0.513590000000     0.0453236  
H76      H      0.065540000000     0.342830000000     0.495290000000     0.0461363  
H77      H      0.988550000000     0.154390000000     0.576620000000     0.0450772  
H78      H      0.066750000000     0.154150000000     0.482360000000     0.0408578  
H79      H      0.032100000000     0.340650000000     0.444380000000     0.0417812  
H80      H      0.962980000000     0.344430000000     0.564230000000     0.041451   
H81      H      0.338640000000     0.066530000000     0.989050000000     0.0456912  
H82      H      0.340510000000     0.962810000000     0.056490000000     0.0415234  
H83      H      0.245750000000     0.934770000000     0.052930000000     0.0446979  
H84      H      0.245810000000     0.061880000000     0.941090000000     0.0446166  
H85      H      0.151020000000     0.061870000000     0.969240000000     0.0413837  
H86      H      0.150990000000     0.934780000000     0.024700000000     0.0414577  
H87      H      0.340580000000     0.033840000000     0.937620000000     0.041524   
H88      H      0.338630000000     0.930120000000     0.005070000000     0.0457699  
H89      H      0.152900000000     0.981840000000     0.063480000000     0.0459235  
H90      H      0.152950000000     0.014810000000     0.930460000000     0.0459249  
H91      H      0.838910000000     0.983140000000     0.930140000000     0.0457845  
H92      H      0.840790000000     0.061340000000     0.025880000000     0.0415727  
H93      H      0.746070000000     0.060510000000     0.054430000000     0.0446753  
H94      H      0.746040000000     0.936120000000     0.939580000000     0.0444611  
H95      H      0.651300000000     0.964500000000     0.936640000000     0.0415063  
H96      H      0.651350000000     0.032070000000     0.057480000000     0.0416408  
H97      H      0.840800000000     0.935340000000     0.968020000000     0.0414326  
H98      H      0.838970000000     0.013550000000     0.063780000000     0.0459148  
H99      H      0.653170000000     0.066250000000     0.007030000000     0.045751   
H100     H      0.653190000000     0.930330000000     0.987100000000     0.0455846  
H101     H      0.980170000000     0.841540000000     0.064080000000     0.0459503  
H102     H      0.058930000000     0.843120000000     0.968830000000     0.0413417  
H103     H      0.058360000000     0.748310000000     0.940690000000     0.044513   
H104     H      0.933130000000     0.748630000000     0.054500000000     0.0446771  
H105     H      0.961400000000     0.653810000000     0.057910000000     0.0415563  
H106     H      0.030140000000     0.653560000000     0.937760000000     0.0415212  
H107     H      0.932690000000     0.843380000000     0.025860000000     0.0415249  
H108     H      0.011420000000     0.841210000000     0.930640000000     0.0457871  
H109     H      0.063720000000     0.655600000000     0.988590000000     0.0456328  
H110     H      0.927760000000     0.655560000000     0.007100000000     0.0457249  
H111     H      0.980130000000     0.155080000000     0.929780000000     0.0458905  
H112     H      0.058880000000     0.153570000000     0.025050000000     0.0414972  
H113     H      0.058350000000     0.248420000000     0.053060000000     0.0446628  
H114     H      0.933130000000     0.248000000000     0.939240000000     0.0445558  
H115     H      0.961450000000     0.342790000000     0.935700000000     0.0414972  
H116     H      0.030170000000     0.343190000000     0.055860000000     0.0415918  
H117     H      0.932650000000     0.153280000000     0.968000000000     0.0413989  
H118     H      0.011360000000     0.155540000000     0.063220000000     0.0458756  
H119     H      0.063750000000     0.341070000000     0.005030000000     0.0457536  
H120     H      0.927790000000     0.341140000000     0.986500000000     0.0456147  
N1       N      0.499760000000     0.003410000000     0.632400000000    -0.166581   
N2       N      0.496100000000     0.002090000000     0.861800000000    -0.166534   
N3       N      0.496100000000     0.994500000000     0.132360000000    -0.166611   
N4       N      0.499770000000     0.993140000000     0.361770000000    -0.166718   
N5       N      0.995700000000     0.500250000000     0.861450000000    -0.166567   
N6       N      0.995990000000     0.503620000000     0.632000000000    -0.166575   
N7       N      0.996000000000     0.492480000000     0.361540000000    -0.166526   
N8       N      0.995690000000     0.496380000000     0.132110000000    -0.166511   
N9       N      0.135660000000     0.998010000000     0.496870000000    -0.166605   
N10      N      0.364920000000     0.998260000000     0.497080000000    -0.16671    
N11      N      0.635700000000     0.998260000000     0.497090000000    -0.166686   
N12      N      0.865080000000     0.998070000000     0.496900000000    -0.166794   
N13      N      0.996740000000     0.633500000000     0.490420000000    -0.16618    
N14      N      0.003570000000     0.863150000000     0.484020000000    -0.166055   
N15      N      0.996730000000     0.362560000000     0.503140000000    -0.166137   
N16      N      0.003630000000     0.132920000000     0.509730000000    -0.166006   
N17      N      0.131030000000     0.998330000000     0.996960000000    -0.166318   
N18      N      0.360530000000     0.998320000000     0.997070000000    -0.166473   
N19      N      0.631310000000     0.998280000000     0.997070000000    -0.166446   
N20      N      0.860810000000     0.998340000000     0.996950000000    -0.166359   
N21      N      0.995760000000     0.633710000000     0.997870000000    -0.166901   
N22      N      0.995840000000     0.863220000000     0.997310000000    -0.166678   
N23      N      0.995800000000     0.362970000000     0.995710000000    -0.166904   
N24      N      0.995790000000     0.133460000000     0.996570000000    -0.166603   
O1       O      0.063920000000     0.006690000000     0.960270000000    -0.394251   
O2       O      0.927920000000     0.989840000000     0.960290000000    -0.394458   
O3       O      0.987490000000     0.066230000000     0.960070000000    -0.395297   
O4       O      0.004320000000     0.930250000000     0.960470000000    -0.395215   
O5       O      0.987490000000     0.930440000000     0.033820000000    -0.395135   
O6       O      0.004310000000     0.066440000000     0.033430000000    -0.394947   
O7       O      0.927920000000     0.006830000000     0.033600000000    -0.394285   
O8       O      0.063910000000     0.989990000000     0.033640000000    -0.394346   
O9       O      0.068710000000     0.999760000000     0.459210000000    -0.396671   
O10      O      0.932100000000     0.007350000000     0.460400000000    -0.396976   
O11      O      0.005780000000     0.069750000000     0.466460000000    -0.398853   
O12      O      0.995450000000     0.933590000000     0.453060000000    -0.393255   
O13      O      0.005750000000     0.926310000000     0.527290000000    -0.398839   
O14      O      0.995490000000     0.062480000000     0.540690000000    -0.393103   
O15      O      0.932110000000     0.988750000000     0.533360000000    -0.39721    
O16      O      0.068720000000     0.996280000000     0.534520000000    -0.396643   
O17      O      0.033180000000     0.495340000000     0.928490000000    -0.397037   
O18      O      0.033180000000     0.501340000000     0.065070000000    -0.396788   
O19      O      0.033080000000     0.430020000000     0.001040000000    -0.397499   
O20      O      0.033060000000     0.566670000000     0.992530000000    -0.39771    
O21      O      0.958320000000     0.566620000000     0.002520000000    -0.396762   
O22      O      0.958340000000     0.430040000000     0.991040000000    -0.397096   
O23      O      0.958150000000     0.493690000000     0.064980000000    -0.396691   
O24      O      0.958160000000     0.502970000000     0.928580000000    -0.396864   
O25      O      0.033450000000     0.497440000000     0.565090000000    -0.397558   
O26      O      0.033460000000     0.498620000000     0.428460000000    -0.397523   
O27      O      0.033360000000     0.566400000000     0.498390000000    -0.398286   
O28      O      0.033360000000     0.429660000000     0.495170000000    -0.398238   
O29      O      0.958620000000     0.429700000000     0.505070000000    -0.393623   
O30      O      0.958630000000     0.566370000000     0.488480000000    -0.393734   
O31      O      0.958430000000     0.491060000000     0.428730000000    -0.395876   
O32      O      0.958420000000     0.505000000000     0.564810000000    -0.395841   
O33      O      0.499380000000     0.958540000000     0.064340000000    -0.396496   
O34      O      0.492480000000     0.962890000000     0.927900000000    -0.397564   
O35      O      0.564240000000     0.960970000000     0.991390000000    -0.396417   
O36      O      0.427580000000     0.960760000000     0.000840000000    -0.396258   
O37      O      0.427590000000     0.035870000000     0.993320000000    -0.39641    
O38      O      0.564250000000     0.035610000000     0.002770000000    -0.396182   
O39      O      0.499390000000     0.038050000000     0.929820000000    -0.396647   
O40      O      0.492490000000     0.033710000000     0.066270000000    -0.39717    
O41      O      0.500080000000     0.963560000000     0.567030000000    -0.400523   
O42      O      0.500400000000     0.957550000000     0.430470000000    -0.395123   
O43      O      0.568700000000     0.960670000000     0.500590000000    -0.397793   
O44      O      0.431870000000     0.960660000000     0.500580000000    -0.397855   
O45      O      0.431860000000     0.035870000000     0.493580000000    -0.397675   
O46      O      0.568710000000     0.035870000000     0.493570000000    -0.397667   
O47      O      0.500090000000     0.032980000000     0.427140000000    -0.400369   
O48      O      0.500390000000     0.038990000000     0.563690000000    -0.395291   


