data_structure

_audit_creation_method RASPA-1.0
_audit_creation_date 2023-5-23
_audit_author_name 'Poobodin Mano'

_cell_length_a    27.833
_cell_length_b    29.4314
_cell_length_c    29.4704
_cell_angle_alpha 89.9997
_cell_angle_beta  89.999
_cell_angle_gamma 90.0049
_cell_volume      24141.1

_symmetry_cell_setting          triclinic
_symmetry_space_group_name_Hall 'P 1'
_symmetry_space_group_name_H-M  'P 1'
_symmetry_Int_Tables_number     1

_symmetry_equiv_pos_as_xyz 'x,y,z'

loop_
_atom_site_label
_atom_site_type_symbol
_atom_site_fract_x
_atom_site_fract_y
_atom_site_fract_z
_atom_site_charge
C1       C      0.986620000000     0.498950000000     0.910490000000     0.40954    
C2       C      0.986640000000     0.502880000000     0.089490000000     0.40963    
C3       C      0.986640000000     0.410610000000     0.001770000000     0.403361   
C4       C      0.986620000000     0.591220000000     0.998210000000     0.403217   
C5       C      0.986610000000     0.502860000000     0.410490000000     0.409773   
C6       C      0.986640000000     0.498960000000     0.589490000000     0.409521   
C7       C      0.986620000000     0.410610000000     0.498230000000     0.403408   
C8       C      0.986640000000     0.591210000000     0.501760000000     0.403432   
C9       C      0.986620000000     0.914710000000     0.999820000000     0.476327   
C10      C      0.986640000000     0.087120000000     0.000720000000     0.476146   
C11      C      0.989760000000     0.001270000000     0.913240000000     0.459357   
C12      C      0.983490000000     0.000530000000     0.087340000000     0.459326   
C13      C      0.986630000000     0.914710000000     0.500720000000     0.476225   
C14      C      0.986630000000     0.087110000000     0.499820000000     0.47633    
C15      C      0.989750000000     0.000530000000     0.413240000000     0.459328   
C16      C      0.983510000000     0.001270000000     0.587340000000     0.459313   
C17      C      0.476620000000     0.000760000000     0.089810000000     0.405277   
C18      C      0.496660000000     0.000780000000     0.910860000000     0.405245   
C19      C      0.581450000000     0.000760000000     0.011300000000     0.403191   
C20      C      0.391830000000     0.000790000000     0.989360000000     0.403167   
C21      C      0.476650000000     0.000780000000     0.589810000000     0.40528    
C22      C      0.496610000000     0.000760000000     0.410850000000     0.405227   
C23      C      0.581440000000     0.000790000000     0.511270000000     0.40321    
C24      C      0.391820000000     0.000760000000     0.489400000000     0.403229   
C25      C      0.497810000000     0.042090000000     0.837190000000    -0.022315   
C26      C      0.475490000000     0.959490000000     0.663490000000    -0.0223111  
C27      C      0.475500000000     0.042090000000     0.663490000000    -0.0222542  
C28      C      0.480880000000     0.024340000000     0.710220000000     0.0134878  
C29      C      0.480880000000     0.977240000000     0.710220000000     0.0139527  
C30      C      0.486640000000     0.952350000000     0.750340000000    -0.066414   
C31      C      0.497810000000     0.959480000000     0.837180000000    -0.0223262  
C32      C      0.486650000000     0.049230000000     0.750340000000    -0.06614    
C33      C      0.492400000000     0.977240000000     0.790450000000     0.0139697  
C34      C      0.492400000000     0.024340000000     0.790460000000     0.0135032  
C35      C      0.497750000000     0.042060000000     0.337180000000    -0.0223474  
C36      C      0.475440000000     0.959450000000     0.163480000000    -0.0223767  
C37      C      0.475450000000     0.042060000000     0.163480000000    -0.0222435  
C38      C      0.480820000000     0.024310000000     0.210220000000     0.0134775  
C39      C      0.480820000000     0.977200000000     0.210220000000     0.0139847  
C40      C      0.486570000000     0.952310000000     0.250330000000    -0.0664183  
C41      C      0.497740000000     0.959450000000     0.337180000000    -0.0222804  
C42      C      0.486580000000     0.049190000000     0.250330000000    -0.0661138  
C43      C      0.492320000000     0.977200000000     0.290450000000     0.0139402  
C44      C      0.492330000000     0.024300000000     0.290450000000     0.0135125  
C45      C      0.314230000000     0.042060000000     0.479780000000    -0.0223124  
C46      C      0.129690000000     0.960670000000     0.490430000000    -0.0307298  
C47      C      0.129780000000     0.041200000000     0.490300000000    -0.0303466  
C48      C      0.178610000000     0.024290000000     0.479840000000     0.0156516  
C49      C      0.178570000000     0.977460000000     0.479910000000     0.0162832  
C50      C      0.221450000000     0.952500000000     0.478660000000    -0.0674493  
C51      C      0.314170000000     0.959500000000     0.479890000000    -0.0224149  
C52      C      0.221540000000     0.049190000000     0.478520000000    -0.0671269  
C53      C      0.264420000000     0.977250000000     0.476480000000     0.013905   
C54      C      0.264460000000     0.024360000000     0.476400000000     0.0134074  
C55      C      0.659040000000     0.042110000000     0.520800000000    -0.0223584  
C56      C      0.843560000000     0.960670000000     0.510290000000    -0.0308048  
C57      C      0.843490000000     0.041210000000     0.510170000000    -0.030399   
C58      C      0.794660000000     0.024330000000     0.520710000000     0.0156639  
C59      C      0.794690000000     0.977500000000     0.520760000000     0.0163085  
C60      C      0.751800000000     0.952540000000     0.522090000000    -0.0675038  
C61      C      0.659080000000     0.959540000000     0.520860000000    -0.0224692  
C62      C      0.751740000000     0.049230000000     0.521990000000    -0.0671541  
C63      C      0.708850000000     0.977300000000     0.524220000000     0.0139373  
C64      C      0.708820000000     0.024410000000     0.524190000000     0.0134146  
C65      C      0.129710000000     0.960680000000     0.990360000000    -0.0306951  
C66      C      0.314250000000     0.042110000000     0.979790000000    -0.0222795  
C67      C      0.314190000000     0.959550000000     0.979730000000    -0.0223527  
C68      C      0.264430000000     0.977310000000     0.976340000000     0.01389    
C69      C      0.264470000000     0.024420000000     0.976380000000     0.0134027  
C70      C      0.221560000000     0.049240000000     0.978650000000    -0.0671063  
C71      C      0.129790000000     0.041220000000     0.990490000000    -0.0302666  
C72      C      0.221470000000     0.952550000000     0.978550000000    -0.0674444  
C73      C      0.178640000000     0.024340000000     0.980040000000     0.0156411  
C74      C      0.178600000000     0.977510000000     0.979960000000     0.0162959  
C75      C      0.659040000000     0.042060000000     0.020910000000    -0.0223378  
C76      C      0.843560000000     0.960660000000     0.010160000000    -0.0308597  
C77      C      0.843490000000     0.041200000000     0.010280000000    -0.0304698  
C78      C      0.794660000000     0.024290000000     0.020770000000     0.0156704  
C79      C      0.794700000000     0.977460000000     0.020700000000     0.0163237  
C80      C      0.751810000000     0.952490000000     0.021980000000    -0.0675176  
C81      C      0.659090000000     0.959500000000     0.020810000000    -0.0224431  
C82      C      0.751740000000     0.049180000000     0.022120000000    -0.0671545  
C83      C      0.708850000000     0.977240000000     0.024190000000     0.0139242  
C84      C      0.708820000000     0.024360000000     0.024260000000     0.0134063  
C85      C      0.945160000000     0.001430000000     0.839380000000    -0.0197334  
C86      C      0.028110000000     0.001430000000     0.661200000000    -0.019797   
C87      C      0.940940000000     0.001420000000     0.662760000000    -0.0195167  
C88      C      0.960760000000     0.001450000000     0.709930000000     0.0116304  
C89      C      0.010490000000     0.001450000000     0.708970000000     0.012968   
C90      C      0.037730000000     0.001450000000     0.749250000000    -0.0649869  
C91      C      0.032330000000     0.001430000000     0.837820000000    -0.0195879  
C92      C      0.935540000000     0.001440000000     0.751330000000    -0.0643586  
C93      C      0.012510000000     0.001450000000     0.790660000000     0.0127697  
C94      C      0.962780000000     0.001450000000     0.791610000000     0.0118231  
C95      C      0.940930000000     0.000360000000     0.162760000000    -0.0194314  
C96      C      0.032310000000     0.000370000000     0.337820000000    -0.0195437  
C97      C      0.945150000000     0.000360000000     0.339390000000    -0.0196819  
C98      C      0.962770000000     0.000340000000     0.291610000000     0.0117883  
C99      C      0.012490000000     0.000340000000     0.290650000000     0.0127944  
C100     C      0.037720000000     0.000350000000     0.249260000000    -0.0650446  
C101     C      0.028100000000     0.000360000000     0.161200000000    -0.0198807  
C102     C      0.935520000000     0.000340000000     0.251330000000    -0.0643593  
C103     C      0.010480000000     0.000340000000     0.208970000000     0.0130038  
C104     C      0.960750000000     0.000340000000     0.209930000000     0.0115929  
C105     C      0.942950000000     0.840750000000     0.501640000000    -0.0173395  
C106     C      0.030310000000     0.665220000000     0.502260000000    -0.0222968  
C107     C      0.942970000000     0.665210000000     0.502730000000    -0.0221635  
C108     C      0.961740000000     0.712380000000     0.502510000000     0.0128707  
C109     C      0.011540000000     0.712380000000     0.502210000000     0.01407    
C110     C      0.037840000000     0.752990000000     0.501690000000    -0.0659716  
C111     C      0.030310000000     0.840750000000     0.500930000000    -0.0174844  
C112     C      0.935430000000     0.752980000000     0.502380000000    -0.0652755  
C113     C      0.011540000000     0.793590000000     0.501550000000     0.0130171  
C114     C      0.961730000000     0.793590000000     0.501920000000     0.0117992  
C115     C      0.030290000000     0.336600000000     0.497330000000    -0.0223116  
C116     C      0.942950000000     0.161070000000     0.499530000000    -0.0173271  
C117     C      0.030310000000     0.161070000000     0.498810000000    -0.0174764  
C118     C      0.011530000000     0.208230000000     0.498420000000     0.0130144  
C119     C      0.961720000000     0.208230000000     0.498800000000     0.0117958  
C120     C      0.935410000000     0.248830000000     0.498580000000    -0.0652701  
C121     C      0.942950000000     0.336600000000     0.497810000000    -0.0221467  
C122     C      0.037830000000     0.248830000000     0.497860000000    -0.0659757  
C123     C      0.961720000000     0.289430000000     0.497960000000     0.0128623  
C124     C      0.011520000000     0.289440000000     0.497650000000     0.0140702  
C125     C      0.942910000000     0.497330000000     0.662840000000    -0.021379   
C126     C      0.030340000000     0.497320000000     0.837140000000    -0.0214261  
C127     C      0.942890000000     0.497310000000     0.837140000000    -0.0212602  
C128     C      0.961700000000     0.496720000000     0.790320000000     0.0133591  
C129     C      0.011550000000     0.496720000000     0.790330000000     0.01459    
C130     C      0.037910000000     0.496770000000     0.749990000000    -0.0669001  
C131     C      0.030370000000     0.497330000000     0.662840000000    -0.0214199  
C132     C      0.935350000000     0.496760000000     0.749980000000    -0.0661578  
C133     C      0.011560000000     0.496740000000     0.709660000000     0.0145932  
C134     C      0.961710000000     0.496730000000     0.709650000000     0.0134027  
C135     C      0.942890000000     0.504480000000     0.337140000000    -0.0212543  
C136     C      0.030370000000     0.504520000000     0.162840000000    -0.0214239  
C137     C      0.942920000000     0.504510000000     0.162830000000    -0.0212972  
C138     C      0.961710000000     0.505100000000     0.209650000000     0.0133715  
C139     C      0.011560000000     0.505110000000     0.209660000000     0.014601   
C140     C      0.037910000000     0.505060000000     0.249990000000    -0.0669067  
C141     C      0.030340000000     0.504490000000     0.337140000000    -0.0214028  
C142     C      0.935350000000     0.505050000000     0.249980000000    -0.06618    
C143     C      0.011550000000     0.505080000000     0.290320000000     0.0145875  
C144     C      0.961700000000     0.505080000000     0.290320000000     0.0133629  
C145     C      0.942950000000     0.665220000000     0.997780000000    -0.0221238  
C146     C      0.030300000000     0.840760000000     0.998800000000    -0.0174349  
C147     C      0.942940000000     0.840750000000     0.999520000000    -0.0173078  
C148     C      0.961710000000     0.793590000000     0.998790000000     0.0118162  
C149     C      0.011520000000     0.793600000000     0.998410000000     0.0130009  
C150     C      0.037820000000     0.753000000000     0.997850000000    -0.0659462  
C151     C      0.030280000000     0.665230000000     0.997310000000    -0.0221898  
C152     C      0.935410000000     0.752990000000     0.998550000000    -0.0652672  
C153     C      0.011510000000     0.712390000000     0.997630000000     0.0140438  
C154     C      0.961710000000     0.712380000000     0.997940000000     0.0128675  
C155     C      0.942960000000     0.161070000000     0.001650000000    -0.0173756  
C156     C      0.030310000000     0.336610000000     0.002270000000    -0.0223159  
C157     C      0.942980000000     0.336600000000     0.002750000000    -0.0221461  
C158     C      0.961740000000     0.289440000000     0.002530000000     0.0128433  
C159     C      0.011550000000     0.289440000000     0.002220000000     0.0140802  
C160     C      0.037850000000     0.248840000000     0.001690000000    -0.0659901  
C161     C      0.030320000000     0.161080000000     0.000920000000    -0.0174956  
C162     C      0.935440000000     0.248830000000     0.002400000000    -0.0652428  
C163     C      0.011550000000     0.208240000000     0.001550000000     0.0130207  
C164     C      0.961740000000     0.208230000000     0.001930000000     0.0117971  
Cu1      Cu     0.031170000000     0.500920000000     0.999970000000     0.853595   
Cu2      Cu     0.942090000000     0.500910000000     0.000010000000     0.852851   
Cu3      Cu     0.031170000000     0.500910000000     0.499970000000     0.853344   
Cu4      Cu     0.942090000000     0.500910000000     0.500000000000     0.85302    
Cu5      Cu     0.936100000000     0.000920000000     0.999710000000     1.17817    
Cu6      Cu     0.037150000000     0.000910000000     0.000870000000     1.17823    
Cu7      Cu     0.936110000000     0.000900000000     0.499720000000     1.17796    
Cu8      Cu     0.037150000000     0.000920000000     0.500870000000     1.17857    
Cu9      Cu     0.486630000000     0.958680000000     0.000330000000     0.847245   
Cu10     Cu     0.486650000000     0.042860000000     0.000340000000     0.847317   
Cu11     Cu     0.486630000000     0.958680000000     0.500340000000     0.8473     
Cu12     Cu     0.486630000000     0.042860000000     0.500330000000     0.847375   
H1       H      0.506350000000     0.064110000000     0.653950000000     0.0444394  
H2       H      0.506340000000     0.937470000000     0.653950000000     0.0444836  
H3       H      0.486640000000     0.915570000000     0.750330000000     0.044027   
H4       H      0.486660000000     0.086010000000     0.750340000000     0.0439473  
H5       H      0.531570000000     0.061930000000     0.840740000000     0.0429437  
H6       H      0.466960000000     0.937460000000     0.846740000000     0.0445015  
H7       H      0.441750000000     0.061940000000     0.659920000000     0.0429351  
H8       H      0.441740000000     0.939640000000     0.659920000000     0.042981   
H9       H      0.531560000000     0.939640000000     0.840730000000     0.0429842  
H10      H      0.466980000000     0.064110000000     0.846740000000     0.0444683  
H11      H      0.506300000000     0.064080000000     0.153950000000     0.0444394  
H12      H      0.506290000000     0.937440000000     0.153940000000     0.044508   
H13      H      0.486580000000     0.915530000000     0.250330000000     0.0440267  
H14      H      0.486590000000     0.085980000000     0.250330000000     0.0439234  
H15      H      0.531500000000     0.061900000000     0.340730000000     0.0429593  
H16      H      0.466890000000     0.937430000000     0.346740000000     0.0444745  
H17      H      0.441700000000     0.061910000000     0.159910000000     0.0429251  
H18      H      0.441690000000     0.939610000000     0.159910000000     0.0429996  
H19      H      0.531490000000     0.939600000000     0.340730000000     0.0429705  
H20      H      0.466910000000     0.064070000000     0.346740000000     0.0444739  
H21      H      0.112590000000     0.054250000000     0.458870000000     0.0387426  
H22      H      0.112470000000     0.947550000000     0.459040000000     0.0388484  
H23      H      0.221480000000     0.915820000000     0.481490000000     0.0439706  
H24      H      0.221640000000     0.085870000000     0.481240000000     0.0438844  
H25      H      0.323950000000     0.062010000000     0.449100000000     0.042982   
H26      H      0.318750000000     0.937660000000     0.510350000000     0.0441305  
H27      H      0.130650000000     0.068330000000     0.516490000000     0.041026   
H28      H      0.130510000000     0.933620000000     0.516690000000     0.0411533  
H29      H      0.323850000000     0.939470000000     0.449250000000     0.0430426  
H30      H      0.318840000000     0.063980000000     0.510190000000     0.04409    
H31      H      0.860700000000     0.054360000000     0.541540000000     0.038751   
H32      H      0.860780000000     0.947660000000     0.541720000000     0.0388607  
H33      H      0.751760000000     0.915860000000     0.519360000000     0.0439864  
H34      H      0.751640000000     0.085900000000     0.519180000000     0.0438911  
H35      H      0.649340000000     0.062110000000     0.551440000000     0.0430027  
H36      H      0.654490000000     0.937640000000     0.490440000000     0.0441553  
H37      H      0.842600000000     0.068250000000     0.483900000000     0.0410431  
H38      H      0.842730000000     0.933540000000     0.484110000000     0.0411516  
H39      H      0.649410000000     0.939580000000     0.551530000000     0.0430533  
H40      H      0.654420000000     0.063960000000     0.490340000000     0.0440975  
H41      H      0.323880000000     0.939590000000     0.949070000000     0.0430323  
H42      H      0.323970000000     0.062110000000     0.949150000000     0.0429883  
H43      H      0.221660000000     0.085920000000     0.981450000000     0.043882   
H44      H      0.221510000000     0.915860000000     0.981270000000     0.0439727  
H45      H      0.112540000000     0.947660000000     0.958910000000     0.0388539  
H46      H      0.130640000000     0.068260000000     0.016750000000     0.0410037  
H47      H      0.318760000000     0.937640000000     0.010160000000     0.0440957  
H48      H      0.318860000000     0.063970000000     0.010250000000     0.0440553  
H49      H      0.112650000000     0.054370000000     0.959080000000     0.0387352  
H50      H      0.130500000000     0.933550000000     0.016540000000     0.0411096  
H51      H      0.860690000000     0.054240000000     0.041700000000     0.0387627  
H52      H      0.860800000000     0.947540000000     0.041540000000     0.0388502  
H53      H      0.751770000000     0.915820000000     0.019160000000     0.043989   
H54      H      0.751640000000     0.085860000000     0.019400000000     0.0438756  
H55      H      0.649350000000     0.062000000000     0.051600000000     0.0429807  
H56      H      0.654480000000     0.937650000000     0.990350000000     0.0441598  
H57      H      0.842600000000     0.068320000000     0.984100000000     0.0410682  
H58      H      0.842720000000     0.933610000000     0.983900000000     0.0411901  
H59      H      0.649420000000     0.939470000000     0.051450000000     0.0430352  
H60      H      0.654430000000     0.063980000000     0.990500000000     0.044122   
H61      H      0.918600000000     0.032060000000     0.656450000000     0.0419685  
H62      H      0.050190000000     0.032080000000     0.654070000000     0.0436589  
H63      H      0.076610000000     0.001450000000     0.748410000000     0.0442001  
H64      H      0.896660000000     0.001430000000     0.752170000000     0.044014   
H65      H      0.923090000000     0.032080000000     0.846500000000     0.0435609  
H66      H      0.054680000000     0.970780000000     0.844100000000     0.0421991  
H67      H      0.918590000000     0.970770000000     0.656490000000     0.0420955  
H68      H      0.050220000000     0.970800000000     0.654110000000     0.0437858  
H69      H      0.054670000000     0.032080000000     0.844130000000     0.0420671  
H70      H      0.923050000000     0.970800000000     0.846470000000     0.043699   
H71      H      0.923070000000     0.969710000000     0.346510000000     0.0436562  
H72      H      0.054650000000     0.969720000000     0.344140000000     0.0421618  
H73      H      0.076590000000     0.000360000000     0.248410000000     0.0442259  
H74      H      0.896650000000     0.000350000000     0.252170000000     0.0440261  
H75      H      0.918590000000     0.969710000000     0.156450000000     0.0420474  
H76      H      0.050200000000     0.031000000000     0.154110000000     0.043705   
H77      H      0.923040000000     0.030990000000     0.346470000000     0.0435687  
H78      H      0.054670000000     0.031020000000     0.344090000000     0.042068   
H79      H      0.050170000000     0.969720000000     0.154070000000     0.04379    
H80      H      0.918570000000     0.031010000000     0.156490000000     0.0419606  
H81      H      0.920530000000     0.658460000000     0.472270000000     0.0436476  
H82      H      0.052410000000     0.658440000000     0.471590000000     0.0437027  
H83      H      0.076730000000     0.752990000000     0.501360000000     0.0435556  
H84      H      0.896540000000     0.752980000000     0.502580000000     0.0433516  
H85      H      0.920510000000     0.847200000000     0.471120000000     0.0410126  
H86      H      0.052760000000     0.847790000000     0.531320000000     0.0411537  
H87      H      0.921110000000     0.658540000000     0.533570000000     0.0434396  
H88      H      0.052510000000     0.658580000000     0.532890000000     0.0436169  
H89      H      0.052170000000     0.847190000000     0.470030000000     0.0408406  
H90      H      0.921070000000     0.847760000000     0.532410000000     0.04074    
H91      H      0.052740000000     0.154680000000     0.529350000000     0.0411163  
H92      H      0.921100000000     0.154690000000     0.530460000000     0.0407104  
H93      H      0.896520000000     0.248830000000     0.498910000000     0.0433486  
H94      H      0.076720000000     0.248840000000     0.497660000000     0.043553   
H95      H      0.052740000000     0.343420000000     0.527760000000     0.0437803  
H96      H      0.920750000000     0.343180000000     0.467160000000     0.0434869  
H97      H      0.052190000000     0.153990000000     0.468060000000     0.040849   
H98      H      0.920480000000     0.153960000000     0.469170000000     0.0410333  
H99      H      0.920840000000     0.343440000000     0.528460000000     0.0435878  
H100     H      0.052130000000     0.343210000000     0.466460000000     0.0435495  
H101     H      0.920930000000     0.466580000000     0.844270000000     0.0434877  
H102     H      0.052300000000     0.466590000000     0.844280000000     0.0435994  
H103     H      0.076800000000     0.497010000000     0.750000000000     0.0441936  
H104     H      0.896450000000     0.496990000000     0.749980000000     0.0439645  
H105     H      0.920950000000     0.466600000000     0.655700000000     0.0435072  
H106     H      0.052620000000     0.528060000000     0.656550000000     0.0437622  
H107     H      0.920630000000     0.528030000000     0.843430000000     0.0436394  
H108     H      0.052590000000     0.528050000000     0.843440000000     0.0437587  
H109     H      0.052330000000     0.466610000000     0.655710000000     0.0436074  
H110     H      0.920670000000     0.528050000000     0.656540000000     0.0436728  
H111     H      0.920960000000     0.535230000000     0.155700000000     0.0434853  
H112     H      0.052330000000     0.535250000000     0.155710000000     0.043599   
H113     H      0.076800000000     0.504830000000     0.250000000000     0.0441926  
H114     H      0.896460000000     0.504810000000     0.249980000000     0.0439811  
H115     H      0.920930000000     0.535210000000     0.344270000000     0.0434799  
H116     H      0.052590000000     0.473760000000     0.343440000000     0.0437519  
H117     H      0.920670000000     0.473780000000     0.156540000000     0.0436495  
H118     H      0.052620000000     0.473800000000     0.156550000000     0.0437696  
H119     H      0.052300000000     0.535220000000     0.344280000000     0.0435952  
H120     H      0.920640000000     0.473750000000     0.343430000000     0.0436376  
H121     H      0.921080000000     0.847120000000     0.030430000000     0.0406897  
H122     H      0.052730000000     0.847150000000     0.029340000000     0.0410853  
H123     H      0.076710000000     0.753000000000     0.997660000000     0.0435567  
H124     H      0.896520000000     0.752980000000     0.998880000000     0.0433601  
H125     H      0.920840000000     0.658370000000     0.028430000000     0.0435674  
H126     H      0.052130000000     0.658620000000     0.966450000000     0.043522   
H127     H      0.920480000000     0.847850000000     0.969150000000     0.0410493  
H128     H      0.052190000000     0.847850000000     0.968060000000     0.0408578  
H129     H      0.052740000000     0.658410000000     0.027750000000     0.0437218  
H130     H      0.920750000000     0.658630000000     0.967130000000     0.0434795  
H131     H      0.921120000000     0.343270000000     0.033600000000     0.0434262  
H132     H      0.052520000000     0.343260000000     0.032900000000     0.0436095  
H133     H      0.076740000000     0.248850000000     0.001360000000     0.0435501  
H134     H      0.896540000000     0.248830000000     0.002610000000     0.0433204  
H135     H      0.921090000000     0.154040000000     0.032420000000     0.0407448  
H136     H      0.052180000000     0.154640000000     0.970020000000     0.0408631  
H137     H      0.920530000000     0.343360000000     0.972300000000     0.0436717  
H138     H      0.052410000000     0.343390000000     0.971600000000     0.0437213  
H139     H      0.052780000000     0.154040000000     0.031310000000     0.0411433  
H140     H      0.920510000000     0.154610000000     0.971130000000     0.0410308  
N1       N      0.499520000000     0.000780000000     0.864910000000    -0.167287   
N2       N      0.473790000000     0.000790000000     0.635760000000    -0.167303   
N3       N      0.499460000000     0.000750000000     0.364910000000    -0.16734    
N4       N      0.473750000000     0.000760000000     0.135750000000    -0.16734    
N5       N      0.343470000000     0.000770000000     0.483060000000    -0.166722   
N6       N      0.104100000000     0.000980000000     0.507040000000    -0.227276   
N7       N      0.629800000000     0.000810000000     0.517600000000    -0.166668   
N8       N      0.869150000000     0.000940000000     0.493550000000    -0.227129   
N9       N      0.104100000000     0.000950000000     0.007060000000    -0.227271   
N10      N      0.343480000000     0.000810000000     0.983000000000    -0.166711   
N11      N      0.629800000000     0.000770000000     0.017640000000    -0.166717   
N12      N      0.869150000000     0.000980000000     0.993540000000    -0.227189   
N13      N      0.989330000000     0.001400000000     0.866790000000    -0.176061   
N14      N      0.983940000000     0.001400000000     0.633800000000    -0.176007   
N15      N      0.983920000000     0.000390000000     0.133800000000    -0.17601    
N16      N      0.989320000000     0.000390000000     0.366790000000    -0.176074   
N17      N      0.986630000000     0.868570000000     0.501030000000    -0.181398   
N18      N      0.986640000000     0.637360000000     0.502430000000    -0.166894   
N19      N      0.986620000000     0.364450000000     0.497580000000    -0.166845   
N20      N      0.986630000000     0.133250000000     0.499480000000    -0.181431   
N21      N      0.986650000000     0.497860000000     0.635310000000    -0.169124   
N22      N      0.986610000000     0.497840000000     0.864670000000    -0.169141   
N23      N      0.986610000000     0.503960000000     0.364670000000    -0.169186   
N24      N      0.986650000000     0.503980000000     0.135300000000    -0.169197   
N25      N      0.986620000000     0.637370000000     0.997570000000    -0.166878   
N26      N      0.986620000000     0.868580000000     0.999470000000    -0.181467   
N27      N      0.986640000000     0.133250000000     0.001030000000    -0.181449   
N28      N      0.986640000000     0.364460000000     0.002450000000    -0.166892   
O1       O      0.026790000000     0.499460000000     0.931690000000    -0.403915   
O2       O      0.026810000000     0.502380000000     0.068280000000    -0.403779   
O3       O      0.026780000000     0.432050000000     0.001370000000    -0.398426   
O4       O      0.026770000000     0.569800000000     0.998560000000    -0.398295   
O5       O      0.946470000000     0.569780000000     0.998610000000    -0.398499   
O6       O      0.946490000000     0.432030000000     0.001430000000    -0.398529   
O7       O      0.946470000000     0.502370000000     0.068290000000    -0.404129   
O8       O      0.946450000000     0.499440000000     0.931700000000    -0.403928   
O9       O      0.026780000000     0.502360000000     0.431680000000    -0.403934   
O10      O      0.026810000000     0.499460000000     0.568280000000    -0.403712   
O11      O      0.026770000000     0.432030000000     0.498570000000    -0.398355   
O12      O      0.026780000000     0.569790000000     0.501360000000    -0.398393   
O13      O      0.946490000000     0.569780000000     0.501420000000    -0.39862    
O14      O      0.946480000000     0.432030000000     0.498620000000    -0.398624   
O15      O      0.946470000000     0.499450000000     0.568290000000    -0.404058   
O16      O      0.946450000000     0.502360000000     0.431700000000    -0.404145   
O17      O      0.946980000000     0.936010000000     0.000400000000    -0.481825   
O18      O      0.946990000000     0.065800000000     0.001060000000    -0.481867   
O19      O      0.950050000000     0.001200000000     0.934750000000    -0.467728   
O20      O      0.943770000000     0.000620000000     0.065770000000    -0.465687   
O21      O      0.023210000000     0.000610000000     0.065840000000    -0.467381   
O22      O      0.029490000000     0.001190000000     0.934810000000    -0.465296   
O23      O      0.026280000000     0.065810000000     0.000140000000    -0.481562   
O24      O      0.026270000000     0.936020000000     0.999510000000    -0.481541   
O25      O      0.946980000000     0.936010000000     0.501050000000    -0.481781   
O26      O      0.946990000000     0.065800000000     0.500420000000    -0.481879   
O27      O      0.950040000000     0.000600000000     0.434750000000    -0.467643   
O28      O      0.943780000000     0.001180000000     0.565770000000    -0.465647   
O29      O      0.023220000000     0.001210000000     0.565830000000    -0.46752    
O30      O      0.029480000000     0.000620000000     0.434810000000    -0.465356   
O31      O      0.026270000000     0.065800000000     0.499510000000    -0.48175    
O32      O      0.026270000000     0.936020000000     0.500150000000    -0.481629   
O33      O      0.478560000000     0.962800000000     0.068540000000    -0.399801   
O34      O      0.494700000000     0.962810000000     0.932120000000    -0.399737   
O35      O      0.558980000000     0.962800000000     0.008430000000    -0.397874   
O36      O      0.414280000000     0.962830000000     0.992220000000    -0.397865   
O37      O      0.414310000000     0.038750000000     0.992230000000    -0.397957   
O38      O      0.558990000000     0.038720000000     0.008450000000    -0.398044   
O39      O      0.494720000000     0.038740000000     0.932130000000    -0.399887   
O40      O      0.478570000000     0.038730000000     0.068540000000    -0.399891   
O41      O      0.478590000000     0.962820000000     0.568550000000    -0.399858   
O42      O      0.494680000000     0.962800000000     0.432130000000    -0.399775   
O43      O      0.558990000000     0.962820000000     0.508430000000    -0.397833   
O44      O      0.414280000000     0.962800000000     0.492260000000    -0.397902   
O45      O      0.414290000000     0.038720000000     0.492240000000    -0.398067   
O46      O      0.558970000000     0.038740000000     0.508410000000    -0.398101   
O47      O      0.494680000000     0.038730000000     0.432120000000    -0.399839   
O48      O      0.478580000000     0.038750000000     0.568540000000    -0.399866   


