data_structure

_audit_creation_method RASPA-1.0
_audit_creation_date 2023-5-19
_audit_author_name 'Poobodin Mano'

_cell_length_a    29.5758
_cell_length_b    29.5727
_cell_length_c    29.5302
_cell_angle_alpha 89.9998
_cell_angle_beta  89.9998
_cell_angle_gamma 89.9998
_cell_volume      25828.2

_symmetry_cell_setting          triclinic
_symmetry_space_group_name_Hall 'P 1'
_symmetry_space_group_name_H-M  'P 1'
_symmetry_Int_Tables_number     1

_symmetry_equiv_pos_as_xyz 'x,y,z'

loop_
_atom_site_label
_atom_site_type_symbol
_atom_site_fract_x
_atom_site_fract_y
_atom_site_fract_z
_atom_site_charge
C1       C      0.991330000000     0.084540000000     0.504980000000     0.402693   
C2       C      0.989630000000     0.905500000000     0.492510000000     0.402623   
C3       C      0.080580000000     0.994200000000     0.497040000000     0.404145   
C4       C      0.901310000000     0.995900000000     0.500440000000     0.403905   
C5       C      0.998950000000     0.495690000000     0.410190000000     0.402196   
C6       C      0.996320000000     0.494830000000     0.589300000000     0.402155   
C7       C      0.997480000000     0.405590000000     0.500490000000     0.401551   
C8       C      0.996920000000     0.584610000000     0.498950000000     0.401579   
C9       C      0.486100000000     0.003330000000     0.589060000000     0.402693   
C10      C      0.495320000000     0.991140000000     0.409940000000     0.402282   
C11      C      0.580520000000     0.998940000000     0.503580000000     0.40422    
C12      C      0.401450000000     0.995000000000     0.495450000000     0.403815   
C13      C      0.510420000000     0.001640000000     0.089170000000     0.402517   
C14      C      0.495620000000     0.999800000000     0.910030000000     0.402581   
C15      C      0.503210000000     0.089900000000     0.997330000000     0.403356   
C16      C      0.503480000000     0.910540000000     0.001680000000     0.403628   
C17      C      0.010220000000     0.507870000000     0.089620000000     0.403438   
C18      C      0.999840000000     0.495690000000     0.910740000000     0.403328   
C19      C      0.094150000000     0.499920000000     0.994310000000     0.402704   
C20      C      0.914950000000     0.503590000000     0.005990000000     0.402683   
C21      C      0.414900000000     0.499070000000     0.990100000000     0.403319   
C22      C      0.593930000000     0.501110000000     0.005830000000     0.40282    
C23      C      0.504400000000     0.410530000000     0.991660000000     0.404164   
C24      C      0.504220000000     0.589650000000     0.004290000000     0.403727   
C25      C      0.841930000000     0.473200000000     0.035710000000    -0.0235759  
C26      C      0.667500000000     0.529250000000     0.977400000000    -0.0237742  
C27      C      0.666710000000     0.480340000000     0.043820000000    -0.0234916  
C28      C      0.713930000000     0.490720000000     0.029610000000     0.0134966  
C29      C      0.713980000000     0.521200000000     0.993980000000     0.0147815  
C30      C      0.754210000000     0.539360000000     0.976840000000    -0.0669219  
C31      C      0.841320000000     0.537490000000     0.984070000000    -0.0236709  
C32      C      0.754520000000     0.472560000000     0.046340000000    -0.0656761  
C33      C      0.794640000000     0.523240000000     0.995410000000     0.0147499  
C34      C      0.794900000000     0.488860000000     0.027280000000     0.0133582  
C35      C      0.341550000000     0.468160000000     0.016140000000    -0.0239743  
C36      C      0.167200000000     0.532960000000     0.967910000000    -0.023431   
C37      C      0.167510000000     0.462750000000     0.011130000000    -0.0237077  
C38      C      0.214250000000     0.477630000000     0.000890000000     0.0147587  
C39      C      0.214050000000     0.515550000000     0.973330000000     0.0136654  
C40      C      0.254360000000     0.533190000000     0.955360000000    -0.0657315  
C41      C      0.342000000000     0.523570000000     0.955030000000    -0.0236596  
C42      C      0.254700000000     0.458960000000     0.016840000000    -0.0668468  
C43      C      0.294890000000     0.512540000000     0.969040000000     0.0139     
C44      C      0.294930000000     0.478400000000     0.001170000000     0.014819   
C45      C      0.482220000000     0.662630000000     0.041040000000    -0.0234042  
C46      C      0.536610000000     0.836970000000     0.978470000000    -0.0235137  
C47      C      0.472730000000     0.837500000000     0.030620000000    -0.0233764  
C48      C      0.488680000000     0.790570000000     0.022440000000     0.0133629  
C49      C      0.522870000000     0.790320000000     0.990350000000     0.0148195  
C50      C      0.539530000000     0.749890000000     0.972350000000    -0.0670562  
C51      C      0.531020000000     0.663110000000     0.974510000000    -0.023633   
C52      C      0.473070000000     0.750270000000     0.042200000000    -0.0657316  
C53      C      0.522080000000     0.709690000000     0.990220000000     0.014806   
C54      C      0.491730000000     0.709730000000     0.025970000000     0.0135289  
C55      C      0.537300000000     0.162570000000     0.971710000000    -0.0232858  
C56      C      0.473780000000     0.337590000000     0.018890000000    -0.0237149  
C57      C      0.528890000000     0.337200000000     0.957510000000    -0.0234924  
C58      C      0.517740000000     0.290310000000     0.972070000000     0.0139369  
C59      C      0.483790000000     0.290820000000     0.004400000000     0.0147755  
C60      C      0.464260000000     0.250860000000     0.020590000000    -0.066916   
C61      C      0.467420000000     0.163660000000     0.015470000000    -0.0236582  
C62      C      0.538090000000     0.249580000000     0.958620000000    -0.065801   
C63      C      0.482640000000     0.210190000000     0.004910000000     0.0148158  
C64      C      0.520350000000     0.209550000000     0.977080000000     0.0136764  
C65      C      0.507710000000     0.040090000000     0.661760000000    -0.0236126  
C66      C      0.456720000000     0.978740000000     0.838010000000    -0.0235952  
C67      C      0.522310000000     0.028600000000     0.835770000000    -0.023648   
C68      C      0.503880000000     0.021490000000     0.789660000000     0.0142337  
C69      C      0.468810000000     0.990440000000     0.790580000000     0.0141931  
C70      C      0.450680000000     0.972780000000     0.750440000000    -0.0662535  
C71      C      0.457890000000     0.974450000000     0.662950000000    -0.0238114  
C72      C      0.518780000000     0.040890000000     0.748970000000    -0.0663248  
C73      C      0.467560000000     0.990200000000     0.709610000000     0.0141572  
C74      C      0.498600000000     0.025290000000     0.708970000000     0.0143183  
C75      C      0.473110000000     0.022510000000     0.335820000000    -0.0241526  
C76      C      0.544430000000     0.975970000000     0.162580000000    -0.0234822  
C77      C      0.480000000000     0.027320000000     0.162640000000    -0.0243879  
C78      C      0.492260000000     0.014340000000     0.209260000000     0.0159273  
C79      C      0.526830000000     0.982750000000     0.209510000000     0.0125688  
C80      C      0.539890000000     0.961120000000     0.249970000000    -0.0647959  
C81      C      0.523620000000     0.957420000000     0.337180000000    -0.0234039  
C82      C      0.472260000000     0.029700000000     0.249200000000    -0.0680016  
C83      C      0.518010000000     0.974940000000     0.290050000000     0.0125129  
C84      C      0.486910000000     0.009950000000     0.289540000000     0.015814   
C85      C      0.028770000000     0.519650000000     0.662630000000    -0.0237485  
C86      C      0.975510000000     0.459130000000     0.838170000000    -0.0232626  
C87      C      0.024410000000     0.525460000000     0.836550000000    -0.0236026  
C88      C      0.014720000000     0.509550000000     0.790170000000     0.0150065  
C89      C      0.984330000000     0.473900000000     0.790760000000     0.0133144  
C90      C      0.965360000000     0.457280000000     0.750440000000    -0.0655616  
C91      C      0.964800000000     0.467650000000     0.662850000000    -0.0233447  
C92      C      0.031910000000     0.526940000000     0.749640000000    -0.0672543  
C93      C      0.980720000000     0.476570000000     0.709760000000     0.0131994  
C94      C      0.014950000000     0.508570000000     0.709480000000     0.0150679  
C95      C      0.034180000000     0.473610000000     0.337120000000    -0.0238162  
C96      C      0.988030000000     0.543300000000     0.162950000000    -0.0235216  
C97      C      0.037230000000     0.477170000000     0.162900000000    -0.0240199  
C98      C      0.026100000000     0.490910000000     0.209720000000     0.0149727  
C99      C      0.995530000000     0.526420000000     0.209820000000     0.0135641  
C100     C      0.974660000000     0.540660000000     0.250070000000    -0.0657513  
C101     C      0.970040000000     0.525390000000     0.336720000000    -0.0233964  
C102     C      0.041520000000     0.471290000000     0.249980000000    -0.0671363  
C103     C      0.988270000000     0.519180000000     0.290250000000     0.0133781  
C104     C      0.022620000000     0.487320000000     0.290320000000     0.0148806  
C105     C      0.153500000000     0.021730000000     0.465480000000    -0.0235469  
C106     C      0.328460000000     0.958390000000     0.515250000000    -0.0233895  
C107     C      0.327920000000     0.028970000000     0.472570000000    -0.0235203  
C108     C      0.281220000000     0.012440000000     0.480360000000     0.0143399  
C109     C      0.281520000000     0.974280000000     0.507600000000     0.014202   
C110     C      0.241350000000     0.955960000000     0.524840000000    -0.0663679  
C111     C      0.154210000000     0.965490000000     0.525840000000    -0.0234611  
C112     C      0.240680000000     0.030790000000     0.464040000000    -0.0664589  
C113     C      0.200840000000     0.976130000000     0.510770000000     0.0141844  
C114     C      0.200490000000     0.010610000000     0.479000000000     0.0143013  
C115     C      0.653810000000     0.969600000000     0.532840000000    -0.0235849  
C116     C      0.827760000000     0.018490000000     0.466560000000    -0.0233575  
C117     C      0.828360000000     0.975850000000     0.537220000000    -0.0234037  
C118     C      0.781390000000     0.984520000000     0.521970000000     0.0142034  
C119     C      0.781150000000     0.011730000000     0.483770000000     0.014304   
C120     C      0.740770000000     0.029120000000     0.466090000000    -0.0664413  
C121     C      0.653750000000     0.029870000000     0.476510000000    -0.0233976  
C122     C      0.741090000000     0.968390000000     0.541030000000    -0.0664379  
C123     C      0.700540000000     0.015260000000     0.486990000000     0.0142236  
C124     C      0.700630000000     0.983540000000     0.521520000000     0.0142235  
C125     C      0.962790000000     0.657820000000     0.521940000000    -0.0237687  
C126     C      0.012670000000     0.832510000000     0.456540000000    -0.0233788  
C127     C      0.963470000000     0.831890000000     0.522740000000    -0.0239184  
C128     C      0.973870000000     0.785270000000     0.508000000000     0.0148156  
C129     C      0.004470000000     0.785420000000     0.472470000000     0.0135117  
C130     C      0.024480000000     0.745120000000     0.457210000000    -0.0657231  
C131     C      0.027110000000     0.658050000000     0.470340000000    -0.0234455  
C132     C      0.957500000000     0.744910000000     0.526550000000    -0.0670223  
C133     C      0.009930000000     0.704740000000     0.477670000000     0.013374   
C134     C      0.975500000000     0.704630000000     0.509490000000     0.0147426  
C135     C      0.965470000000     0.158310000000     0.475030000000    -0.0237992  
C136     C      0.028060000000     0.332150000000     0.528800000000    -0.0233773  
C137     C      0.963920000000     0.332300000000     0.476980000000    -0.0238112  
C138     C      0.976920000000     0.285500000000     0.489130000000     0.0148216  
C139     C      0.011320000000     0.285370000000     0.520980000000     0.0132884  
C140     C      0.026180000000     0.244920000000     0.541070000000    -0.0656051  
C141     C      0.014980000000     0.157420000000     0.540990000000    -0.0233623  
C142     C      0.959170000000     0.245250000000     0.471770000000    -0.0671029  
C143     C      0.006490000000     0.204600000000     0.525440000000     0.0134309  
C144     C      0.975800000000     0.204860000000     0.489990000000     0.0147982  
Cu1      Cu     0.991700000000     0.991460000000     0.540390000000     0.842653   
Cu2      Cu     0.990240000000     0.998570000000     0.457110000000     0.844005   
Cu3      Cu     0.038790000000     0.495220000000     0.500290000000     0.837189   
Cu4      Cu     0.956050000000     0.494980000000     0.499190000000     0.837121   
Cu5      Cu     0.491770000000     0.955420000000     0.503110000000     0.837991   
Cu6      Cu     0.490260000000     0.038560000000     0.495990000000     0.848413   
Cu7      Cu     0.544820000000     0.000230000000     0.995530000000     0.839877   
Cu8      Cu     0.461740000000     0.000170000000     0.003620000000     0.84608    
Cu9      Cu     0.003850000000     0.460160000000     0.003720000000     0.841093   
Cu10     Cu     0.005220000000     0.543350000000     0.996710000000     0.844831   
Cu11     Cu     0.508660000000     0.503680000000     0.956420000000     0.846042   
Cu12     Cu     0.500130000000     0.496480000000     0.039570000000     0.84459    
H1       H      0.659800000000     0.494360000000     0.078030000000     0.0456168  
H2       H      0.659080000000     0.565860000000     0.978840000000     0.0413319  
H3       H      0.754060000000     0.564300000000     0.950000000000     0.0445191  
H4       H      0.754660000000     0.446760000000     0.072330000000     0.0446385  
H5       H      0.850550000000     0.476210000000     0.072210000000     0.0416846  
H6       H      0.847350000000     0.534800000000     0.947000000000     0.0421556  
H7       H      0.660390000000     0.443310000000     0.042630000000     0.0414397  
H8       H      0.663620000000     0.515680000000     0.942510000000     0.0470239  
H9       H      0.847760000000     0.572360000000     0.996520000000     0.0460728  
H10      H      0.846380000000     0.437960000000     0.023410000000     0.0462371  
H11      H      0.162030000000     0.460880000000     0.048330000000     0.0413402  
H12      H      0.163640000000     0.566420000000     0.984690000000     0.046256   
H13      H      0.254220000000     0.561780000000     0.932470000000     0.0444783  
H14      H      0.254870000000     0.431160000000     0.040690000000     0.0443032  
H15      H      0.346080000000     0.478140000000     0.052150000000     0.0471878  
H16      H      0.348100000000     0.512960000000     0.919460000000     0.0456404  
H17      H      0.160340000000     0.429790000000     0.994520000000     0.0464014  
H18      H      0.157870000000     0.534770000000     0.931500000000     0.0408989  
H19      H      0.348960000000     0.560200000000     0.959820000000     0.0410686  
H20      H      0.349490000000     0.431800000000     0.010910000000     0.0407028  
H21      H      0.475850000000     0.846370000000     0.067060000000     0.0418361  
H22      H      0.571590000000     0.843730000000     0.990460000000     0.0462832  
H23      H      0.564430000000     0.749700000000     0.945480000000     0.0445186  
H24      H      0.447490000000     0.750430000000     0.068410000000     0.0446891  
H25      H      0.496420000000     0.656590000000     0.075340000000     0.0456197  
H26      H      0.517480000000     0.658330000000     0.939720000000     0.0469911  
H27      H      0.437420000000     0.841670000000     0.018450000000     0.0460041  
H28      H      0.533420000000     0.842730000000     0.941400000000     0.0420352  
H29      H      0.567770000000     0.655430000000     0.976070000000     0.0413728  
H30      H      0.445320000000     0.655620000000     0.040020000000     0.041526   
H31      H      0.518110000000     0.342950000000     0.921930000000     0.0456647  
H32      H      0.437420000000     0.345590000000     0.013730000000     0.0407463  
H33      H      0.436570000000     0.251400000000     0.044560000000     0.0442751  
H34      H      0.566480000000     0.249080000000     0.935490000000     0.0445077  
H35      H      0.538780000000     0.153140000000     0.935300000000     0.0409617  
H36      H      0.465870000000     0.158290000000     0.052700000000     0.0411744  
H37      H      0.565560000000     0.344080000000     0.962040000000     0.0411165  
H38      H      0.483930000000     0.342500000000     0.054810000000     0.0471109  
H39      H      0.434250000000     0.156760000000     0.999190000000     0.0465     
H40      H      0.570820000000     0.158730000000     0.988280000000     0.0461792  
H41      H      0.520810000000     0.064970000000     0.845140000000     0.041495   
H42      H      0.422650000000     0.992070000000     0.846560000000     0.0460474  
H43      H      0.425350000000     0.946360000000     0.750930000000     0.044522   
H44      H      0.545190000000     0.066230000000     0.748410000000     0.044563   
H45      H      0.493860000000     0.074500000000     0.655800000000     0.0458161  
H46      H      0.470770000000     0.939460000000     0.658150000000     0.0468979  
H47      H      0.557400000000     0.015320000000     0.837980000000     0.0465073  
H48      H      0.458690000000     0.941600000000     0.843440000000     0.0414861  
H49      H      0.421120000000     0.976620000000     0.655540000000     0.0412596  
H50      H      0.544540000000     0.038640000000     0.654350000000     0.0416346  
H51      H      0.483520000000     0.064430000000     0.157780000000     0.0415149  
H52      H      0.579470000000     0.989140000000     0.159500000000     0.0450912  
H53      H      0.565500000000     0.934990000000     0.250250000000     0.0445712  
H54      H      0.446480000000     0.055690000000     0.248900000000     0.044518   
H55      H      0.485020000000     0.057290000000     0.343730000000     0.0475988  
H56      H      0.510040000000     0.922510000000     0.340050000000     0.0451728  
H57      H      0.445050000000     0.015790000000     0.154960000000     0.0478764  
H58      H      0.542520000000     0.939690000000     0.152950000000     0.0414143  
H59      H      0.559680000000     0.959020000000     0.347620000000     0.0413831  
H60      H      0.435850000000     0.019570000000     0.339840000000     0.0417988  
H61      H      0.010910000000     0.560220000000     0.841410000000     0.046864   
H62      H      0.938730000000     0.460370000000     0.845810000000     0.0414312  
H63      H      0.939870000000     0.431020000000     0.750720000000     0.0445989  
H64      H      0.056970000000     0.553620000000     0.749380000000     0.044613   
H65      H      0.025550000000     0.556550000000     0.656220000000     0.042131   
H66      H      0.967810000000     0.431100000000     0.654600000000     0.0418943  
H67      H      0.061300000000     0.523990000000     0.843620000000     0.0417818  
H68      H      0.989630000000     0.424830000000     0.844160000000     0.0455886  
H69      H      0.929560000000     0.479870000000     0.658370000000     0.045843   
H70      H      0.063780000000     0.507590000000     0.656170000000     0.0465624  
H71      H      0.024330000000     0.442480000000     0.156270000000     0.0473947  
H72      H      0.951440000000     0.542550000000     0.154400000000     0.0417274  
H73      H      0.948910000000     0.566670000000     0.250080000000     0.0446763  
H74      H      0.066560000000     0.444590000000     0.249880000000     0.0445601  
H75      H      0.030750000000     0.436420000000     0.341310000000     0.0420196  
H76      H      0.972380000000     0.561450000000     0.347090000000     0.0419729  
H77      H      0.074240000000     0.479400000000     0.156800000000     0.041303   
H78      H      0.002390000000     0.577770000000     0.158820000000     0.0454478  
H79      H      0.934710000000     0.512780000000     0.338810000000     0.0457803  
H80      H      0.068810000000     0.485280000000     0.345900000000     0.0466615  
H81      H      0.333010000000     0.062160000000     0.489480000000     0.0465101  
H82      H      0.335870000000     0.956240000000     0.552090000000     0.0413244  
H83      H      0.241620000000     0.927640000000     0.548060000000     0.0445285  
H84      H      0.240420000000     0.059320000000     0.441080000000     0.0445142  
H85      H      0.146380000000     0.058210000000     0.471110000000     0.0416014  
H86      H      0.146500000000     0.929100000000     0.520370000000     0.0414653  
H87      H      0.335330000000     0.030990000000     0.435730000000     0.0410665  
H88      H      0.334110000000     0.925400000000     0.498130000000     0.0461977  
H89      H      0.149500000000     0.975270000000     0.561870000000     0.0463217  
H90      H      0.147460000000     0.011920000000     0.429660000000     0.0462702  
H91      H      0.835070000000     0.938920000000     0.539170000000     0.0411361  
H92      H      0.832100000000     0.001440000000     0.433300000000     0.0463041  
H93      H      0.740630000000     0.052060000000     0.437530000000     0.0445734  
H94      H      0.741220000000     0.945210000000     0.569390000000     0.0445075  
H95      H      0.648180000000     0.933710000000     0.523210000000     0.04652    
H96      H      0.648640000000     0.065750000000     0.486490000000     0.0460551  
H97      H      0.834770000000     0.992720000000     0.570230000000     0.0463097  
H98      H      0.835870000000     0.055130000000     0.464340000000     0.0411386  
H99      H      0.646070000000     0.024510000000     0.440050000000     0.0416668  
H100     H      0.646670000000     0.975330000000     0.569350000000     0.0413475  
H101     H      0.976600000000     0.837680000000     0.557540000000     0.0471659  
H102     H      0.049360000000     0.840580000000     0.457620000000     0.0414403  
H103     H      0.050210000000     0.745200000000     0.431160000000     0.0446651  
H104     H      0.932350000000     0.744880000000     0.553190000000     0.0445566  
H105     H      0.965890000000     0.652630000000     0.559090000000     0.0419702  
H106     H      0.024640000000     0.648630000000     0.433990000000     0.0418491  
H107     H      0.926530000000     0.838500000000     0.520800000000     0.0415088  
H108     H      0.998520000000     0.837490000000     0.422050000000     0.0454516  
H109     H      0.062360000000     0.654870000000     0.482980000000     0.0457961  
H110     H      0.928030000000     0.650130000000     0.509860000000     0.0465605  
H111     H      0.929060000000     0.339640000000     0.488980000000     0.0465313  
H112     H      0.025370000000     0.341220000000     0.565230000000     0.0420477  
H113     H      0.051910000000     0.244810000000     0.567140000000     0.0446645  
H114     H      0.933980000000     0.245320000000     0.445180000000     0.0446043  
H115     H      0.928550000000     0.151600000000     0.477110000000     0.0416322  
H116     H      0.051690000000     0.149490000000     0.539650000000     0.0415672  
H117     H      0.967130000000     0.337790000000     0.439890000000     0.0422086  
H118     H      0.063330000000     0.335750000000     0.516330000000     0.0457928  
H119     H      0.001050000000     0.152140000000     0.575530000000     0.0454809  
H120     H      0.978450000000     0.152750000000     0.440140000000     0.0470566  
N1       N      0.869150000000     0.504720000000     0.008680000000    -0.166357   
N2       N      0.639600000000     0.503730000000     0.009480000000    -0.166225   
N3       N      0.369280000000     0.496440000000     0.986330000000    -0.166189   
N4       N      0.139900000000     0.498730000000     0.991250000000    -0.166155   
N5       N      0.506060000000     0.635370000000     0.007140000000    -0.16665    
N6       N      0.503950000000     0.864710000000     0.003270000000    -0.166714   
N7       N      0.502960000000     0.135690000000     0.995340000000    -0.166446   
N8       N      0.502020000000     0.364870000000     0.988660000000    -0.166563   
N9       N      0.483200000000     0.006510000000     0.634790000000    -0.166237   
N10      N      0.491690000000     0.001990000000     0.864320000000    -0.166267   
N11      N      0.496260000000     0.989030000000     0.364030000000    -0.166061   
N12      N      0.513170000000     0.003030000000     0.135030000000    -0.165971   
N13      N      0.996190000000     0.494370000000     0.635210000000    -0.166379   
N14      N      0.999970000000     0.493000000000     0.864910000000    -0.166597   
N15      N      0.000240000000     0.497320000000     0.364330000000    -0.16635    
N16      N      0.013080000000     0.510570000000     0.135360000000    -0.166406   
N17      N      0.126380000000     0.993800000000     0.496170000000    -0.166836   
N18      N      0.355670000000     0.993950000000     0.494020000000    -0.166565   
N19      N      0.626300000000     0.999800000000     0.504760000000    -0.166903   
N20      N      0.855520000000     0.996590000000     0.501300000000    -0.166684   
N21      N      0.996220000000     0.630470000000     0.497700000000    -0.166146   
N22      N      0.987850000000     0.859740000000     0.489760000000    -0.166237   
N23      N      0.990070000000     0.130320000000     0.507720000000    -0.166321   
N24      N      0.997040000000     0.359720000000     0.501570000000    -0.166121   
O1       O      0.997220000000     0.060600000000     0.540820000000    -0.393534   
O2       O      0.985640000000     0.924140000000     0.531410000000    -0.3988     
O3       O      0.059920000000     0.986000000000     0.534310000000    -0.397127   
O4       O      0.923250000000     0.995020000000     0.537900000000    -0.396951   
O5       O      0.921870000000     0.996270000000     0.462200000000    -0.397136   
O6       O      0.058690000000     0.002800000000     0.460590000000    -0.397434   
O7       O      0.994610000000     0.929380000000     0.456490000000    -0.393768   
O8       O      0.985730000000     0.065930000000     0.466260000000    -0.399282   
O9       O      0.035330000000     0.487090000000     0.432170000000    -0.396015   
O10      O      0.033270000000     0.503410000000     0.568270000000    -0.396112   
O11      O      0.034300000000     0.426990000000     0.508780000000    -0.393511   
O12      O      0.034060000000     0.563430000000     0.491620000000    -0.393517   
O13      O      0.960210000000     0.563050000000     0.507170000000    -0.395432   
O14      O      0.960860000000     0.426950000000     0.491370000000    -0.395545   
O15      O      0.959660000000     0.486730000000     0.567550000000    -0.394001   
O16      O      0.961640000000     0.503360000000     0.430980000000    -0.394145   
O17      O      0.482940000000     0.964370000000     0.570430000000    -0.396798   
O18      O      0.500210000000     0.955170000000     0.433940000000    -0.391195   
O19      O      0.559710000000     0.961680000000     0.511180000000    -0.396758   
O20      O      0.423500000000     0.957680000000     0.496910000000    -0.396451   
O21      O      0.421850000000     0.033270000000     0.495760000000    -0.397465   
O22      O      0.558810000000     0.035280000000     0.494290000000    -0.397953   
O23      O      0.488510000000     0.029580000000     0.428580000000    -0.401129   
O24      O      0.491980000000     0.039170000000     0.565200000000    -0.39563    
O25      O      0.546180000000     0.996310000000     0.065010000000    -0.392004   
O26      O      0.534760000000     0.004480000000     0.927960000000    -0.397175   
O27      O      0.541060000000     0.068740000000     0.996970000000    -0.396165   
O28      O      0.540090000000     0.931810000000     0.992360000000    -0.397284   
O29      O      0.466570000000     0.931850000000     0.009580000000    -0.396966   
O30      O      0.465490000000     0.068550000000     0.999300000000    -0.397166   
O31      O      0.460210000000     0.994350000000     0.934610000000    -0.39511    
O32      O      0.471560000000     0.006360000000     0.070730000000    -0.40056    
O33      O      0.013140000000     0.469000000000     0.070800000000    -0.398932   
O34      O      0.995080000000     0.459810000000     0.934840000000    -0.393579   
O35      O      0.072090000000     0.462640000000     0.996670000000    -0.396244   
O36      O      0.935870000000     0.466180000000     0.012560000000    -0.395771   
O37      O      0.936570000000     0.539960000000     0.996490000000    -0.396824   
O38      O      0.073750000000     0.538200000000     0.995060000000    -0.395675   
O39      O      0.006060000000     0.534330000000     0.929190000000    -0.400354   
O40      O      0.004530000000     0.543890000000     0.065990000000    -0.395069   
O41      O      0.439400000000     0.504250000000     0.954550000000    -0.394424   
O42      O      0.576020000000     0.505030000000     0.966580000000    -0.399512   
O43      O      0.509960000000     0.434440000000     0.955760000000    -0.394974   
O44      O      0.509040000000     0.571130000000     0.965420000000    -0.400334   
O45      O      0.498880000000     0.565730000000     0.040220000000    -0.394934   
O46      O      0.499580000000     0.429010000000     0.030530000000    -0.400203   
O47      O      0.569440000000     0.496030000000     0.041430000000    -0.394016   
O48      O      0.432750000000     0.495000000000     0.029370000000    -0.399218   


