data_structure

_audit_creation_method RASPA-1.0
_audit_creation_date 2023-5-19
_audit_author_name 'Poobodin Mano'

_cell_length_a    28.6148
_cell_length_b    29.7594
_cell_length_c    29.4032
_cell_angle_alpha 89.9998
_cell_angle_beta  89.9998
_cell_angle_gamma 89.9998
_cell_volume      25038.6

_symmetry_cell_setting          triclinic
_symmetry_space_group_name_Hall 'P 1'
_symmetry_space_group_name_H-M  'P 1'
_symmetry_Int_Tables_number     1

_symmetry_equiv_pos_as_xyz 'x,y,z'

loop_
_atom_site_label
_atom_site_type_symbol
_atom_site_fract_x
_atom_site_fract_y
_atom_site_fract_z
_atom_site_charge
C1       C      0.044070000000     0.073330000000     0.516840000000     0.40074    
C2       C      0.994960000000     0.901430000000     0.501390000000     0.400261   
C3       C      0.104550000000     0.961810000000     0.534770000000     0.400546   
C4       C      0.934400000000     0.013610000000     0.483610000000     0.400063   
C5       C      0.002510000000     0.490890000000     0.415600000000     0.398932   
C6       C      0.025750000000     0.481820000000     0.594730000000     0.399841   
C7       C      0.018410000000     0.397070000000     0.498740000000     0.399489   
C8       C      0.009670000000     0.575120000000     0.511790000000     0.399453   
C9       C      0.548800000000     0.013030000000     0.590760000000     0.398731   
C10      C      0.491000000000     0.981240000000     0.421390000000     0.399142   
C11      C      0.603950000000     0.018440000000     0.474000000000     0.400544   
C12      C      0.435750000000     0.975140000000     0.537910000000     0.399923   
C13      C      0.544730000000     0.019370000000     0.919250000000     0.39953    
C14      C      0.504530000000     0.989990000000     0.093560000000     0.399157   
C15      C      0.521320000000     0.916650000000     0.991360000000     0.398952   
C16      C      0.527970000000     0.093190000000     0.021560000000     0.398427   
C17      C      0.989100000000     0.521160000000     0.087820000000     0.400382   
C18      C      0.055500000000     0.518330000000     0.918770000000     0.401244   
C19      C      0.106610000000     0.499170000000     0.035560000000     0.400336   
C20      C      0.938030000000     0.539170000000     0.970730000000     0.400774   
C21      C      0.546370000000     0.419080000000     0.005800000000     0.398629   
C22      C      0.499070000000     0.592260000000     0.012940000000     0.399208   
C23      C      0.437550000000     0.482110000000     0.036350000000     0.401579   
C24      C      0.607780000000     0.530100000000     0.982570000000     0.401106   
C25      C      0.818910000000     0.524850000000     0.920910000000     0.0123205  
C26      C      0.742990000000     0.499030000000     0.894460000000    -0.043021   
C27      C      0.668130000000     0.533990000000     0.923280000000    -0.0228063  
C28      C      0.720470000000     0.528800000000     0.924250000000     0.0134379  
C29      C      0.674340000000     0.579630000000     0.996250000000    -0.0251629  
C30      C      0.725530000000     0.584580000000     0.984950000000     0.0126356  
C31      C      0.791720000000     0.496160000000     0.893810000000    -0.0434117  
C32      C      0.747290000000     0.556820000000     0.952510000000    -0.00599304 
C33      C      0.752360000000     0.616000000000     0.009080000000    -0.0435314  
C34      C      0.800390000000     0.619340000000     0.001690000000    -0.043146   
C35      C      0.874300000000     0.594090000000     0.962480000000    -0.0234462  
C36      C      0.822920000000     0.589480000000     0.972030000000     0.0136016  
C37      C      0.871450000000     0.519230000000     0.921490000000    -0.0245826  
C38      C      0.796600000000     0.557100000000     0.948430000000    -0.00605538 
C39      C      0.226760000000     0.509620000000     0.085910000000     0.0118894  
C40      C      0.303420000000     0.529850000000     0.115260000000    -0.043159   
C41      C      0.375550000000     0.485320000000     0.094060000000    -0.0228153  
C42      C      0.324220000000     0.495550000000     0.089530000000     0.0136676  
C43      C      0.368660000000     0.434610000000     0.024870000000    -0.0252985  
C44      C      0.316580000000     0.435810000000     0.033020000000     0.0129423  
C45      C      0.255360000000     0.537680000000     0.112320000000    -0.043148   
C46      C      0.296150000000     0.468140000000     0.061790000000    -0.00605336 
C47      C      0.287850000000     0.405260000000     0.009860000000    -0.0437337  
C48      C      0.239390000000     0.407140000000     0.014710000000    -0.0431425  
C49      C      0.166820000000     0.441830000000     0.048420000000    -0.0233624  
C50      C      0.218670000000     0.441390000000     0.040530000000     0.0133692  
C51      C      0.175340000000     0.520630000000     0.080970000000    -0.0242877  
C52      C      0.246960000000     0.473070000000     0.062730000000    -0.00590532 
C53      C      0.544040000000     0.798090000000     0.014680000000     0.0127705  
C54      C      0.555620000000     0.732130000000     0.061860000000    -0.0436855  
C55      C      0.503610000000     0.664160000000     0.054070000000    -0.0242196  
C56      C      0.519810000000     0.709620000000     0.038580000000     0.0136481  
C57      C      0.456430000000     0.657530000000     0.981300000000    -0.0253235  
C58      C      0.462970000000     0.707920000000     0.976700000000     0.0122525  
C59      C      0.568700000000     0.775440000000     0.048950000000    -0.0430588  
C60      C      0.496230000000     0.731300000000     0.002910000000    -0.00667011 
C61      C      0.436680000000     0.731550000000     0.944280000000    -0.0434957  
C62      C      0.443430000000     0.777640000000     0.937850000000    -0.0431887  
C63      C      0.482710000000     0.851200000000     0.956200000000    -0.0251022  
C64      C      0.478100000000     0.800780000000     0.962150000000     0.0117517  
C65      C      0.560010000000     0.843390000000     0.998470000000    -0.0232652  
C66      C      0.506140000000     0.776960000000     0.993230000000    -0.00589578 
C67      C      0.504320000000     0.212120000000     0.999650000000     0.0130279  
C68      C      0.491810000000     0.279020000000     0.954060000000    -0.0436073  
C69      C      0.542520000000     0.347620000000     0.963900000000    -0.0242484  
C70      C      0.526920000000     0.301610000000     0.978260000000     0.0136476  
C71      C      0.588400000000     0.353540000000     0.037630000000    -0.0253082  
C72      C      0.583060000000     0.302870000000     0.040700000000     0.0119961  
C73      C      0.479490000000     0.235170000000     0.965760000000    -0.043183   
C74      C      0.550590000000     0.279500000000     0.013580000000    -0.00653992 
C75      C      0.609560000000     0.278900000000     0.072700000000    -0.043421   
C76      C      0.603810000000     0.232500000000     0.077780000000    -0.0432837  
C77      C      0.566460000000     0.158610000000     0.056890000000    -0.0251275  
C78      C      0.569860000000     0.209310000000     0.052560000000     0.0117324  
C79      C      0.488940000000     0.166260000000     0.014740000000    -0.0235901  
C80      C      0.541590000000     0.233400000000     0.021930000000    -0.00621139 
C81      C      0.596480000000     0.998080000000     0.709180000000     0.0117412  
C82      C      0.625620000000     0.975060000000     0.783400000000    -0.0430447  
C83      C      0.600070000000     0.014470000000     0.855450000000    -0.0230178  
C84      C      0.595990000000     0.005990000000     0.805020000000     0.0130119  
C85      C      0.524230000000     0.059700000000     0.849980000000    -0.0248975  
C86      C      0.534070000000     0.061990000000     0.799650000000     0.0120724  
C87      C      0.624820000000     0.970240000000     0.736100000000    -0.0432455  
C88      C      0.566150000000     0.032840000000     0.778630000000    -0.00612998 
C89      C      0.508320000000     0.092170000000     0.772970000000    -0.0435375  
C90      C      0.514270000000     0.093360000000     0.725950000000    -0.0434106  
C91      C      0.553320000000     0.066320000000     0.654370000000    -0.0239511  
C92      C      0.543950000000     0.062490000000     0.704410000000     0.0132679  
C93      C      0.595190000000     0.991020000000     0.658080000000    -0.0244298  
C94      C      0.568740000000     0.031020000000     0.730500000000    -0.00625106 
C95      C      0.499300000000     0.936200000000     0.306440000000     0.0131579  
C96      C      0.539560000000     0.912560000000     0.237880000000    -0.0434861  
C97      C      0.526410000000     0.950070000000     0.162650000000    -0.0245495  
C98      C      0.513800000000     0.943440000000     0.212000000000     0.0117772  
C99      C      0.448080000000     0.991600000000     0.156500000000    -0.0230685  
C100     C      0.450030000000     0.997440000000     0.207390000000     0.0128622  
C101     C      0.531430000000     0.908050000000     0.284420000000    -0.0433723  
C102     C      0.479630000000     0.969990000000     0.233350000000    -0.00616783 
C103     C      0.418320000000     0.026010000000     0.229520000000    -0.0429926  
C104     C      0.416850000000     0.027930000000     0.277000000000    -0.0433989  
C105     C      0.443720000000     0.003360000000     0.354730000000    -0.0251608  
C106     C      0.444990000000     0.999390000000     0.303340000000     0.0120852  
C107     C      0.488670000000     0.929750000000     0.356020000000    -0.0236986  
C108     C      0.474730000000     0.968620000000     0.281310000000    -0.00629219 
C109     C      0.074630000000     0.460670000000     0.711680000000     0.0114671  
C110     C      0.113020000000     0.439840000000     0.782400000000    -0.0438164  
C111     C      0.097170000000     0.480440000000     0.856050000000    -0.0253797  
C112     C      0.091420000000     0.475740000000     0.805070000000     0.0128248  
C113     C      0.063520000000     0.558680000000     0.846310000000    -0.0237157  
C114     C      0.044830000000     0.544420000000     0.800740000000     0.0144681  
C115     C      0.105820000000     0.433220000000     0.735860000000    -0.0431967  
C116     C      0.062640000000     0.505320000000     0.780320000000    -0.00664584 
C117     C      0.011980000000     0.570680000000     0.777300000000    -0.0440967  
C118     C      0.996030000000     0.557270000000     0.734480000000    -0.0419058  
C119     C      0.994950000000     0.501400000000     0.669680000000    -0.0221669  
C120     C      0.015610000000     0.519620000000     0.712900000000     0.0122523  
C121     C      0.069800000000     0.454860000000     0.660750000000    -0.0241689  
C122     C      0.051020000000     0.495270000000     0.734710000000    -0.00569991 
C123     C      0.957210000000     0.471130000000     0.296730000000     0.0110111  
C124     C      0.921990000000     0.449210000000     0.224660000000    -0.0437188  
C125     C      0.943000000000     0.486910000000     0.150430000000    -0.0253433  
C126     C      0.946390000000     0.483360000000     0.201870000000     0.0122741  
C127     C      0.981040000000     0.563190000000     0.159540000000    -0.0242535  
C128     C      0.996160000000     0.549840000000     0.206420000000     0.014575   
C129     C      0.926370000000     0.443960000000     0.271750000000    -0.0429812  
C130     C      0.975200000000     0.512500000000     0.227200000000    -0.00688093 
C131     C      0.028280000000     0.576050000000     0.230810000000    -0.0437652  
C132     C      0.040520000000     0.564230000000     0.275130000000    -0.0425745  
C133     C      0.035430000000     0.511650000000     0.342000000000    -0.0229321  
C134     C      0.018020000000     0.528330000000     0.296950000000     0.0126575  
C135     C      0.958840000000     0.466990000000     0.348070000000    -0.0236893  
C136     C      0.983440000000     0.504000000000     0.273860000000    -0.00563226 
C137     C      0.225540000000     0.914520000000     0.529990000000     0.0124702  
C138     C      0.302690000000     0.885440000000     0.511700000000    -0.0430531  
C139     C      0.375300000000     0.917490000000     0.548480000000    -0.0232122  
C140     C      0.323510000000     0.918020000000     0.539600000000     0.0136264  
C141     C      0.366990000000     0.995290000000     0.583570000000    -0.0253112  
C142     C      0.315520000000     0.984310000000     0.587790000000     0.012457   
C143     C      0.254260000000     0.884700000000     0.505790000000    -0.0433505  
C144     C      0.295220000000     0.949090000000     0.562710000000    -0.00612791 
C145     C      0.286910000000     0.011480000000     0.615140000000    -0.043429   
C146     C      0.238720000000     0.004110000000     0.617100000000    -0.0429688  
C147     C      0.166320000000     0.961530000000     0.592840000000    -0.022921   
C148     C      0.217850000000     0.971370000000     0.589420000000     0.0135243  
C149     C      0.173570000000     0.914950000000     0.520730000000    -0.0246575  
C150     C      0.245970000000     0.944960000000     0.560750000000    -0.00583437 
C151     C      0.723050000000     0.005620000000     0.424050000000     0.0126561  
C152     C      0.799230000000     0.981300000000     0.396860000000    -0.0430008  
C153     C      0.873560000000     0.018030000000     0.424850000000    -0.0230471  
C154     C      0.821380000000     0.011570000000     0.426390000000     0.0136099  
C155     C      0.867000000000     0.062010000000     0.498890000000    -0.025387   
C156     C      0.815730000000     0.066870000000     0.487400000000     0.0125393  
C157     C      0.750580000000     0.977360000000     0.396790000000    -0.043367   
C158     C      0.794230000000     0.038990000000     0.454930000000    -0.00608171 
C159     C      0.788460000000     0.097910000000     0.511640000000    -0.0434469  
C160     C      0.740320000000     0.100750000000     0.504230000000    -0.0429714  
C161     C      0.666520000000     0.074400000000     0.465020000000    -0.0229495  
C162     C      0.718110000000     0.070620000000     0.474600000000     0.0135724  
C163     C      0.670730000000     0.998730000000     0.425490000000    -0.0246024  
C164     C      0.744910000000     0.038490000000     0.451120000000    -0.00579409 
C165     C      0.034700000000     0.694450000000     0.490540000000     0.0129098  
C166     C      0.049950000000     0.762400000000     0.447380000000    -0.0432768  
C167     C      0.999740000000     0.831410000000     0.457250000000    -0.0234205  
C168     C      0.014110000000     0.784790000000     0.470790000000     0.0131069  
C169     C      0.950610000000     0.835700000000     0.529080000000    -0.0249996  
C170     C      0.955320000000     0.785020000000     0.530940000000     0.0120836  
C171     C      0.061230000000     0.718080000000     0.458330000000    -0.0429004  
C172     C      0.988700000000     0.762040000000     0.504490000000    -0.00613872 
C173     C      0.927170000000     0.760570000000     0.561150000000    -0.0435772  
C174     C      0.932120000000     0.714040000000     0.565080000000    -0.0432354  
C175     C      0.968930000000     0.640490000000     0.543130000000    -0.024372   
C176     C      0.966860000000     0.691200000000     0.540600000000     0.0115522  
C177     C      0.048910000000     0.648000000000     0.505050000000    -0.0228294  
C178     C      0.996780000000     0.715660000000     0.511890000000    -0.00572847 
C179     C      0.079320000000     0.189240000000     0.483470000000     0.0120331  
C180     C      0.095520000000     0.259100000000     0.443770000000    -0.0435324  
C181     C      0.055860000000     0.331670000000     0.463680000000    -0.0249826  
C182     C      0.061650000000     0.281570000000     0.469690000000     0.0119379  
C183     C      0.981400000000     0.323560000000     0.510600000000    -0.0234242  
C184     C      0.998750000000     0.278250000000     0.525660000000     0.0134669  
C185     C      0.103610000000     0.213270000000     0.449980000000    -0.0433534  
C186     C      0.035570000000     0.257450000000     0.502080000000    -0.00655327 
C187     C      0.975540000000     0.254820000000     0.560340000000    -0.0434165  
C188     C      0.989350000000     0.211380000000     0.572040000000    -0.0430177  
C189     C      0.041060000000     0.143610000000     0.561100000000    -0.0238221  
C190     C      0.024450000000     0.189480000000     0.547190000000     0.0130655  
C191     C      0.087590000000     0.139220000000     0.488060000000    -0.0243378  
C192     C      0.046560000000     0.211870000000     0.511030000000    -0.00610391 
Cu1      Cu     0.006440000000     0.987910000000     0.549240000000     0.842729   
Cu2      Cu     0.032380000000     0.986940000000     0.469060000000     0.844051   
Cu3      Cu     0.056720000000     0.488280000000     0.499760000000     0.845074   
Cu4      Cu     0.971330000000     0.483870000000     0.510650000000     0.840917   
Cu5      Cu     0.532520000000     0.957370000000     0.509150000000     0.841602   
Cu6      Cu     0.507250000000     0.036540000000     0.503040000000     0.842656   
Cu7      Cu     0.566730000000     0.001580000000     0.015340000000     0.841142   
Cu8      Cu     0.482610000000     0.008220000000     0.997550000000     0.84274    
Cu9      Cu     0.013320000000     0.478880000000     0.000100000000     0.837224   
Cu10     Cu     0.031310000000     0.559760000000     0.006320000000     0.849168   
Cu11     Cu     0.535740000000     0.507840000000     0.049430000000     0.843622   
Cu12     Cu     0.509760000000     0.503570000000     0.969380000000     0.843365   
H1       H      0.656600000000     0.612350000000     0.990190000000     0.0400515  
H2       H      0.885280000000     0.525900000000     0.886810000000     0.0393587  
H3       H      0.652070000000     0.502260000000     0.910630000000     0.0451417  
H4       H      0.891360000000     0.610990000000     0.991910000000     0.0471501  
H5       H      0.808340000000     0.471700000000     0.871840000000     0.0376807  
H6       H      0.722830000000     0.477530000000     0.872140000000     0.0378404  
H7       H      0.658610000000     0.561580000000     0.899550000000     0.0427857  
H8       H      0.879200000000     0.483410000000     0.929210000000     0.0498288  
H9       H      0.735950000000     0.638100000000     0.033620000000     0.0371561  
H10      H      0.671660000000     0.571660000000     0.033130000000     0.0494863  
H11      H      0.820140000000     0.644720000000     0.019800000000     0.037577   
H12      H      0.879390000000     0.615500000000     0.931910000000     0.0407892  
H13      H      0.374620000000     0.438210000000     0.987650000000     0.0492778  
H14      H      0.172590000000     0.555250000000     0.066960000000     0.0489043  
H15      H      0.380620000000     0.458540000000     0.119940000000     0.0423433  
H16      H      0.158820000000     0.423630000000     0.080500000000     0.042528   
H17      H      0.240300000000     0.565550000000     0.130960000000     0.0371441  
H18      H      0.324510000000     0.551080000000     0.137040000000     0.0378032  
H19      H      0.394310000000     0.516050000000     0.105700000000     0.0450957  
H20      H      0.159070000000     0.521340000000     0.115300000000     0.0397826  
H21      H      0.303080000000     0.379660000000     0.988250000000     0.0371033  
H22      H      0.382350000000     0.401290000000     0.035570000000     0.0395482  
H23      H      0.218010000000     0.382200000000     0.997770000000     0.0373317  
H24      H      0.149400000000     0.423830000000     0.019880000000     0.0468465  
H25      H      0.461820000000     0.642380000000     0.947110000000     0.0495811  
H26      H      0.583360000000     0.838700000000     0.968630000000     0.0419553  
H27      H      0.473660000000     0.668280000000     0.077780000000     0.041237   
H28      H      0.448370000000     0.866530000000     0.964770000000     0.0492287  
H29      H      0.597840000000     0.791440000000     0.066010000000     0.0368066  
H30      H      0.573980000000     0.715900000000     0.089580000000     0.0370557  
H31      H      0.532550000000     0.647670000000     0.073040000000     0.0477835  
H32      H      0.580870000000     0.859740000000     0.025820000000     0.0467649  
H33      H      0.410590000000     0.714260000000     0.924120000000     0.0379402  
H34      H      0.419900000000     0.650600000000     0.992060000000     0.0407961  
H35      H      0.421700000000     0.795320000000     0.913560000000     0.0378214  
H36      H      0.490450000000     0.858540000000     0.919900000000     0.0410743  
H37      H      0.625060000000     0.361600000000     0.028170000000     0.0408878  
H38      H      0.468650000000     0.150180000000     0.986830000000     0.0468069  
H39      H      0.513430000000     0.364040000000     0.945070000000     0.0479347  
H40      H      0.559530000000     0.149950000000     0.093050000000     0.0411836  
H41      H      0.450810000000     0.219080000000     0.948070000000     0.0368659  
H42      H      0.473410000000     0.295570000000     0.926570000000     0.0371092  
H43      H      0.572700000000     0.344450000000     0.940340000000     0.0415969  
H44      H      0.465190000000     0.169990000000     0.044420000000     0.0422821  
H45      H      0.635060000000     0.296170000000     0.093590000000     0.0376988  
H46      H      0.581530000000     0.367640000000     0.072020000000     0.0492971  
H47      H      0.625750000000     0.214600000000     0.101730000000     0.0377124  
H48      H      0.600970000000     0.144270000000     0.047250000000     0.0489927  
H49      H      0.487030000000     0.049640000000     0.854180000000     0.0493119  
H50      H      0.585250000000     0.955440000000     0.651670000000     0.0488129  
H51      H      0.626110000000     0.041560000000     0.861370000000     0.0433903  
H52      H      0.584100000000     0.088470000000     0.648940000000     0.0412571  
H53      H      0.646940000000     0.945150000000     0.720320000000     0.0377283  
H54      H      0.649270000000     0.954430000000     0.803190000000     0.0378296  
H55      H      0.612780000000     0.983320000000     0.872410000000     0.0451062  
H56      H      0.631030000000     0.995550000000     0.644240000000     0.0409148  
H57      H      0.483830000000     0.115170000000     0.788720000000     0.0368607  
H58      H      0.528690000000     0.093850000000     0.864750000000     0.0404672  
H59      H      0.495310000000     0.118160000000     0.706280000000     0.037134   
H60      H      0.522510000000     0.082500000000     0.638080000000     0.0481636  
H61      H      0.435000000000     0.023270000000     0.140820000000     0.045141   
H62      H      0.518970000000     0.913020000000     0.372650000000     0.0475785  
H63      H      0.526580000000     0.916710000000     0.145540000000     0.0410875  
H64      H      0.407860000000     0.995380000000     0.366810000000     0.0407356  
H65      H      0.550670000000     0.882900000000     0.303360000000     0.0371506  
H66      H      0.565900000000     0.891730000000     0.221890000000     0.0368803  
H67      H      0.562500000000     0.963930000000     0.161440000000     0.0489078  
H68      H      0.458140000000     0.906890000000     0.359280000000     0.041029   
H69      H      0.394760000000     0.046990000000     0.210010000000     0.0377852  
H70      H      0.423090000000     0.964190000000     0.148240000000     0.0438306  
H71      H      0.393130000000     0.051290000000     0.293310000000     0.0377211  
H72      H      0.451470000000     0.038940000000     0.363560000000     0.0496567  
H73      H      0.038720000000     0.582750000000     0.862380000000     0.0461882  
H74      H      0.064110000000     0.418670000000     0.653040000000     0.0402165  
H75      H      0.134770000000     0.485630000000     0.863940000000     0.0394563  
H76      H      0.976780000000     0.529130000000     0.651360000000     0.0442859  
H77      H      0.124230000000     0.406300000000     0.718720000000     0.0374859  
H78      H      0.135810000000     0.417110000000     0.800750000000     0.0372508  
H79      H      0.086020000000     0.448310000000     0.872040000000     0.048946   
H80      H      0.103670000000     0.464420000000     0.644920000000     0.0484819  
H81      H      0.997720000000     0.600780000000     0.792680000000     0.0384034  
H82      H      0.097570000000     0.576040000000     0.841650000000     0.0423089  
H83      H      0.968570000000     0.576380000000     0.718080000000     0.0370814  
H84      H      0.968720000000     0.475190000000     0.678230000000     0.0436147  
H85      H      0.007990000000     0.585730000000     0.144630000000     0.0485752  
H86      H      0.961980000000     0.430830000000     0.357230000000     0.0404183  
H87      H      0.906190000000     0.494150000000     0.140850000000     0.0408725  
H88      H      0.052110000000     0.540120000000     0.360500000000     0.0457695  
H89      H      0.905870000000     0.418390000000     0.288770000000     0.0373944  
H90      H      0.899150000000     0.426820000000     0.205950000000     0.0377712  
H91      H      0.952780000000     0.453720000000     0.135900000000     0.0493816  
H92      H      0.924750000000     0.478820000000     0.361730000000     0.0477848  
H93      H      0.044750000000     0.604940000000     0.215160000000     0.0376417  
H94      H      0.947890000000     0.582530000000     0.161810000000     0.0408641  
H95      H      0.067480000000     0.583200000000     0.292470000000     0.037323   
H96      H      0.062400000000     0.485420000000     0.336040000000     0.0439674  
H97      H      0.383060000000     0.994520000000     0.617990000000     0.040135   
H98      H      0.159090000000     0.881060000000     0.528130000000     0.0393123  
H99      H      0.393280000000     0.900340000000     0.519700000000     0.0457717  
H100     H      0.147830000000     0.991800000000     0.605980000000     0.0451309  
H101     H      0.239030000000     0.860530000000     0.482560000000     0.037193   
H102     H      0.323990000000     0.861020000000     0.493900000000     0.0377605  
H103     H      0.382430000000     0.898210000000     0.580100000000     0.0427437  
H104     H      0.168460000000     0.920880000000     0.483710000000     0.0487905  
H105     H      0.302040000000     0.038320000000     0.635200000000     0.0374035  
H106     H      0.369890000000     0.030130000000     0.570150000000     0.0494942  
H107     H      0.217590000000     0.024540000000     0.639610000000     0.0377669  
H108     H      0.160640000000     0.933470000000     0.617160000000     0.0425846  
H109     H      0.869530000000     0.052750000000     0.535470000000     0.0495347  
H110     H      0.663980000000     0.962980000000     0.434380000000     0.0489168  
H111     H      0.882030000000     0.046320000000     0.401600000000     0.0429204  
H112     H      0.661050000000     0.095240000000     0.434120000000     0.0422773  
H113     H      0.734260000000     0.952430000000     0.375150000000     0.0373505  
H114     H      0.819630000000     0.960180000000     0.374360000000     0.0378197  
H115     H      0.890250000000     0.986970000000     0.411320000000     0.0451764  
H116     H      0.656300000000     0.003970000000     0.390780000000     0.0393477  
H117     H      0.804590000000     0.120090000000     0.536280000000     0.0373571  
H118     H      0.884430000000     0.095080000000     0.494140000000     0.0402107  
H119     H      0.720250000000     0.125880000000     0.522370000000     0.0377305  
H120     H      0.648950000000     0.091260000000     0.494200000000     0.0451856  
H121     H      0.955840000000     0.848780000000     0.564160000000     0.0493552  
H122     H      0.071730000000     0.650750000000     0.535510000000     0.0435217  
H123     H      0.970590000000     0.829350000000     0.432350000000     0.041541   
H124     H      0.935010000000     0.627260000000     0.530390000000     0.0489688  
H125     H      0.090440000000     0.702110000000     0.441370000000     0.037217   
H126     H      0.069710000000     0.779480000000     0.421140000000     0.0371953  
H127     H      0.029850000000     0.848060000000     0.440230000000     0.0475042  
H128     H      0.069680000000     0.631960000000     0.477430000000     0.0456382  
H129     H      0.900970000000     0.777570000000     0.581430000000     0.0375361  
H130     H      0.914540000000     0.844390000000     0.518110000000     0.0405506  
H131     H      0.908870000000     0.695740000000     0.587500000000     0.036946   
H132     H      0.972750000000     0.630400000000     0.579370000000     0.0397849  
H133     H      0.963520000000     0.340140000000     0.539750000000     0.0466195  
H134     H      0.124150000000     0.133550000000     0.499470000000     0.0398425  
H135     H      0.045710000000     0.338560000000     0.427840000000     0.0399876  
H136     H      0.012550000000     0.126460000000     0.580100000000     0.0478191  
H137     H      0.129220000000     0.196510000000     0.428790000000     0.0374734  
H138     H      0.115670000000     0.277160000000     0.418490000000     0.0374162  
H139     H      0.090490000000     0.347490000000     0.470000000000     0.0492918  
H140     H      0.084460000000     0.123940000000     0.453670000000     0.0491193  
H141     H      0.946950000000     0.270350000000     0.578680000000     0.0376049  
H142     H      0.955540000000     0.319060000000     0.482770000000     0.0421788  
H143     H      0.972070000000     0.194560000000     0.600050000000     0.0372967  
H144     H      0.071440000000     0.147130000000     0.584370000000     0.0407287  
N1       N      0.894680000000     0.549460000000     0.954280000000    -0.164106   
N2       N      0.650790000000     0.544600000000     0.969070000000    -0.164228   
N3       N      0.149890000000     0.488400000000     0.051880000000    -0.163925   
N4       N      0.393850000000     0.470000000000     0.050040000000    -0.164353   
N5       N      0.519820000000     0.871150000000     0.984740000000    -0.163843   
N6       N      0.488750000000     0.637160000000     0.014650000000    -0.16372    
N7       N      0.529350000000     0.138700000000     0.028300000000    -0.163669   
N8       N      0.556620000000     0.374150000000     0.003930000000    -0.16352    
N9       N      0.562790000000     0.021810000000     0.634430000000    -0.163514   
N10      N      0.554760000000     0.028050000000     0.874710000000    -0.164048   
N11      N      0.477230000000     0.973050000000     0.377560000000    -0.163624   
N12      N      0.494370000000     0.980310000000     0.137870000000    -0.16412    
N13      N      0.031570000000     0.481680000000     0.640750000000    -0.164626   
N14      N      0.070180000000     0.518530000000     0.874660000000    -0.16423    
N15      N      0.997270000000     0.492550000000     0.369470000000    -0.164165   
N16      N      0.973380000000     0.522610000000     0.131800000000    -0.163574   
N17      N      0.148230000000     0.948820000000     0.547890000000    -0.163979   
N18      N      0.392500000000     0.963740000000     0.553760000000    -0.163831   
N19      N      0.647050000000     0.029340000000     0.457580000000    -0.163983   
N20      N      0.891180000000     0.028160000000     0.470650000000    -0.163843   
N21      N      0.007730000000     0.620730000000     0.516670000000    -0.164139   
N22      N      0.984220000000     0.856800000000     0.497520000000    -0.164075   
N23      N      0.055240000000     0.117870000000     0.520610000000    -0.164166   
N24      N      0.020380000000     0.351410000000     0.494210000000    -0.16442    
O1       O      0.026220000000     0.052900000000     0.551040000000    -0.400758   
O2       O      0.988060000000     0.922220000000     0.539150000000    -0.395007   
O3       O      0.073080000000     0.969430000000     0.564960000000    -0.396729   
O4       O      0.943320000000     0.008500000000     0.526010000000    -0.39729    
O5       O      0.965750000000     0.005680000000     0.453360000000    -0.396177   
O6       O      0.095580000000     0.966500000000     0.492330000000    -0.397229   
O7       O      0.012730000000     0.921980000000     0.467230000000    -0.401435   
O8       O      0.050750000000     0.052510000000     0.479090000000    -0.396165   
O9       O      0.043430000000     0.495560000000     0.432740000000    -0.400151   
O10      O      0.061620000000     0.480440000000     0.568520000000    -0.395681   
O11      O      0.055330000000     0.420580000000     0.491980000000    -0.398307   
O12      O      0.049470000000     0.555720000000     0.507130000000    -0.398239   
O13      O      0.971780000000     0.552050000000     0.512760000000    -0.39647    
O14      O      0.979540000000     0.416070000000     0.509050000000    -0.397953   
O15      O      0.984360000000     0.484330000000     0.578230000000    -0.39909    
O16      O      0.966860000000     0.484190000000     0.441300000000    -0.39461    
O17      O      0.554020000000     0.973570000000     0.573610000000    -0.393241   
O18      O      0.509620000000     0.949470000000     0.444640000000    -0.399213   
O19      O      0.594850000000     0.977350000000     0.483580000000    -0.397367   
O20      O      0.466800000000     0.944490000000     0.532150000000    -0.397138   
O21      O      0.444760000000     0.016330000000     0.528550000000    -0.396396   
O22      O      0.573150000000     0.049310000000     0.479960000000    -0.396029   
O23      O      0.485680000000     0.020520000000     0.438810000000    -0.395215   
O24      O      0.530210000000     0.044610000000     0.567280000000    -0.400859   
O25      O      0.577980000000     0.011850000000     0.947630000000    -0.395899   
O26      O      0.547310000000     0.990080000000     0.080510000000    -0.397982   
O27      O      0.559890000000     0.935070000000     0.003440000000    -0.399682   
O28      O      0.565080000000     0.069380000000     0.026780000000    -0.394277   
O29      O      0.489370000000     0.074710000000     0.009660000000    -0.399689   
O30      O      0.484280000000     0.940510000000     0.985940000000    -0.394727   
O31      O      0.471320000000     0.997530000000     0.065150000000    -0.396267   
O32      O      0.502020000000     0.019830000000     0.932420000000    -0.398403   
O33      O      0.986060000000     0.484750000000     0.064390000000    -0.392188   
O34      O      0.042830000000     0.481260000000     0.937280000000    -0.395353   
O35      O      0.077570000000     0.467620000000     0.026330000000    -0.399007   
O36      O      0.951090000000     0.497980000000     0.972880000000    -0.396081   
O37      O      0.965170000000     0.570820000000     0.984190000000    -0.399047   
O38      O      0.095440000000     0.540530000000     0.029390000000    -0.396159   
O39      O      0.052840000000     0.555540000000     0.940680000000    -0.399706   
O40      O      0.007530000000     0.556460000000     0.070540000000    -0.403269   
O41      O      0.553250000000     0.441430000000     0.042640000000    -0.394012   
O42      O      0.516790000000     0.573140000000     0.048000000000    -0.400106   
O43      O      0.469030000000     0.490940000000     0.066160000000    -0.397719   
O44      O      0.598950000000     0.526550000000     0.025150000000    -0.398757   
O45      O      0.576370000000     0.521200000000     0.952680000000    -0.396957   
O46      O      0.446560000000     0.484650000000     0.993730000000    -0.398034   
O47      O      0.491870000000     0.569780000000     0.976260000000    -0.394578   
O48      O      0.529070000000     0.438390000000     0.970640000000    -0.400034   


