data_structure

_audit_creation_method RASPA-1.0
_audit_creation_date 2023-6-4
_audit_author_name 'Poobodin Mano'

_cell_length_a    19.8239
_cell_length_b    20.6723
_cell_length_c    29.008
_cell_angle_alpha 89.9989
_cell_angle_beta  89.9989
_cell_angle_gamma 94.798
_cell_volume      11846

_symmetry_cell_setting          triclinic
_symmetry_space_group_name_Hall 'P 1'
_symmetry_space_group_name_H-M  'P 1'
_symmetry_Int_Tables_number     1

_symmetry_equiv_pos_as_xyz 'x,y,z'

loop_
_atom_site_label
_atom_site_type_symbol
_atom_site_fract_x
_atom_site_fract_y
_atom_site_fract_z
_atom_site_charge
C1       C      0.162980000000     0.898910000000     0.001120000000     0.39477    
C2       C      0.928220000000     0.009420000000     0.002050000000     0.394319   
C3       C      0.103610000000     0.074060000000     0.006610000000     0.405163   
C4       C      0.986950000000     0.834640000000     0.997100000000     0.406732   
C5       C      0.029080000000     0.911590000000     0.509550000000     0.396721   
C6       C      0.917860000000     0.138540000000     0.510540000000     0.396043   
C7       C      0.098600000000     0.081230000000     0.504820000000     0.404658   
C8       C      0.849340000000     0.967390000000     0.516840000000     0.405622   
C9       C      0.550110000000     0.447990000000     0.929450000000     0.474484   
C10      C      0.543900000000     0.453970000000     0.104580000000     0.471153   
C11      C      0.620130000000     0.358890000000     0.020710000000     0.456142   
C12      C      0.470270000000     0.547980000000     0.015700000000     0.461646   
C13      C      0.476000000000     0.524690000000     0.433070000000     0.470175   
C14      C      0.466020000000     0.524020000000     0.607900000000     0.471782   
C15      C      0.568940000000     0.450370000000     0.523410000000     0.461356   
C16      C      0.374370000000     0.595920000000     0.518850000000     0.459852   
C17      C      0.491580000000     0.417000000000     0.810920000000     0.0105126  
C18      C      0.414880000000     0.399930000000     0.745980000000    -0.0429403  
C19      C      0.414620000000     0.477470000000     0.679480000000    -0.0187958  
C20      C      0.442680000000     0.457240000000     0.725090000000     0.00989464 
C21      C      0.497040000000     0.577520000000     0.682060000000    -0.0189695  
C22      C      0.523770000000     0.553220000000     0.726990000000     0.0102064  
C23      C      0.439260000000     0.379890000000     0.788240000000    -0.0436844  
C24      C      0.495490000000     0.495160000000     0.747250000000    -0.00522681 
C25      C      0.576640000000     0.589940000000     0.749410000000    -0.0430054  
C26      C      0.601760000000     0.569350000000     0.791310000000    -0.0429516  
C27      C      0.602970000000     0.490750000000     0.857220000000    -0.0189457  
C28      C      0.574010000000     0.512010000000     0.812170000000     0.0103547  
C29      C      0.518040000000     0.392750000000     0.855950000000    -0.0199462  
C30      C      0.520580000000     0.474550000000     0.790290000000    -0.0056477  
C31      C      0.579090000000     0.505140000000     0.225320000000     0.010168   
C32      C      0.605750000000     0.571120000000     0.293240000000    -0.0429045  
C33      C      0.529430000000     0.570380000000     0.362180000000    -0.0189301  
C34      C      0.545650000000     0.546380000000     0.314670000000     0.0100159  
C35      C      0.419720000000     0.497760000000     0.358950000000    -0.0187278  
C36      C      0.440740000000     0.475330000000     0.312080000000     0.00976383 
C37      C      0.622470000000     0.550430000000     0.249290000000    -0.0430383  
C38      C      0.501530000000     0.500580000000     0.291270000000    -0.00525666 
C39      C      0.397690000000     0.429510000000     0.288350000000    -0.0432379  
C40      C      0.414580000000     0.408600000000     0.244540000000    -0.0429598  
C41      C      0.490780000000     0.409280000000     0.175720000000    -0.0186289  
C42      C      0.474570000000     0.433520000000     0.223080000000     0.00972385 
C43      C      0.600390000000     0.482270000000     0.178550000000    -0.0191965  
C44      C      0.518560000000     0.479560000000     0.246330000000    -0.00526359 
C45      C      0.213490000000     0.672480000000     0.547010000000     0.0103016  
C46      C      0.112670000000     0.713670000000     0.580270000000    -0.043782   
C47      C      0.061670000000     0.812480000000     0.548610000000    -0.0244934  
C48      C      0.112250000000     0.761350000000     0.545830000000     0.0117692  
C49      C      0.094360000000     0.837560000000     0.464690000000    -0.0240589  
C50      C      0.158300000000     0.804970000000     0.473370000000     0.0132559  
C51      C      0.161280000000     0.668290000000     0.579870000000    -0.0424488  
C52      C      0.161930000000     0.763220000000     0.511170000000    -0.00699718 
C53      C      0.211880000000     0.811080000000     0.441600000000    -0.0436385  
C54      C      0.268780000000     0.776380000000     0.447820000000    -0.0422742  
C55      C      0.335220000000     0.699500000000     0.493580000000    -0.0194848  
C56      C      0.270950000000     0.731460000000     0.483970000000     0.010477   
C57      C      0.259760000000     0.618140000000     0.542760000000    -0.0200842  
C58      C      0.215700000000     0.722220000000     0.514090000000    -0.00522829 
C59      C      0.641030000000     0.736920000000     0.476750000000     0.0206309  
C60      C      0.680880000000     0.836160000000     0.437370000000    -0.0410384  
C61      C      0.740800000000     0.930440000000     0.479220000000    -0.0224155  
C62      C      0.706590000000     0.862710000000     0.478900000000     0.0114897  
C63      C      0.754150000000     0.921090000000     0.564920000000    -0.0227074  
C64      C      0.723890000000     0.852000000000     0.562370000000     0.0116658  
C65      C      0.648330000000     0.773790000000     0.436300000000    -0.0476511  
C66      C      0.699940000000     0.825840000000     0.519920000000    -0.00337215 
C67      C      0.718250000000     0.813780000000     0.602390000000    -0.0409649  
C68      C      0.688920000000     0.750070000000     0.600580000000    -0.0471675  
C69      C      0.629590000000     0.656080000000     0.556830000000    -0.0353263  
C70      C      0.663530000000     0.723990000000     0.558880000000     0.0209331  
C71      C      0.603920000000     0.670530000000     0.475670000000    -0.0364097  
C72      C      0.668650000000     0.761940000000     0.518450000000    -0.0113178  
C73      C      0.834960000000     0.288420000000     0.548520000000     0.0121894  
C74      C      0.785340000000     0.380240000000     0.584010000000    -0.042139   
C75      C      0.681580000000     0.426790000000     0.551240000000    -0.0194949  
C76      C      0.731260000000     0.374840000000     0.552570000000     0.00933996 
C77      C      0.607080000000     0.344670000000     0.502350000000    -0.0188738  
C78      C      0.671410000000     0.313920000000     0.491240000000     0.0104596  
C79      C      0.835350000000     0.336230000000     0.582930000000    -0.0440286  
C80      C      0.728240000000     0.324780000000     0.519800000000    -0.0046681  
C81      C      0.672430000000     0.268660000000     0.455230000000    -0.0419255  
C82      C      0.729760000000     0.235190000000     0.447560000000    -0.0436654  
C83      C      0.849350000000     0.211760000000     0.467350000000    -0.0244894  
C84      C      0.785170000000     0.242930000000     0.477750000000     0.0137554  
C85      C      0.886920000000     0.238260000000     0.550110000000    -0.0253221  
C86      C      0.782930000000     0.285010000000     0.515450000000    -0.00742494 
C87      C      0.252310000000     0.169370000000     0.544770000000     0.0108626  
C88      C      0.320770000000     0.249280000000     0.589580000000    -0.0498684  
C89      C      0.379120000000     0.348960000000     0.552720000000    -0.04717    
C90      C      0.334400000000     0.286720000000     0.549890000000     0.0260088  
C91      C      0.365060000000     0.365380000000     0.470040000000    -0.0461281  
C92      C      0.322270000000     0.301950000000     0.467190000000     0.0252632  
C93      C      0.280110000000     0.191080000000     0.587020000000    -0.0397105  
C94      C      0.308050000000     0.264900000000     0.507140000000    -0.0154761  
C95      C      0.297370000000     0.279210000000     0.424440000000    -0.0497301  
C96      C      0.257240000000     0.220700000000     0.421460000000    -0.0396928  
C97      C      0.196920000000     0.121400000000     0.457270000000    -0.0219285  
C98      C      0.241250000000     0.183910000000     0.461170000000     0.00986187 
C99      C      0.209510000000     0.106000000000     0.542670000000    -0.0229038  
C100     C      0.267140000000     0.205660000000     0.504320000000    -0.00143872 
C101     C      0.313880000000     0.811180000000     0.038910000000     0.0121859  
C102     C      0.406470000000     0.759010000000     0.074590000000    -0.0421507  
C103     C      0.450840000000     0.658050000000     0.041280000000    -0.0193522  
C104     C      0.398780000000     0.707610000000     0.042860000000     0.00927133 
C105     C      0.363300000000     0.589820000000     0.991590000000    -0.0189542  
C106     C      0.333870000000     0.653300000000     0.980900000000     0.00998044 
C107     C      0.363090000000     0.809050000000     0.073550000000    -0.0441272  
C108     C      0.347100000000     0.707190000000     0.009850000000    -0.0048228  
C109     C      0.287270000000     0.656800000000     0.944710000000    -0.0420021  
C110     C      0.255000000000     0.713540000000     0.937230000000    -0.0438372  
C111     C      0.235540000000     0.829610000000     0.957510000000    -0.0246178  
C112     C      0.265050000000     0.766210000000     0.967730000000     0.0136584  
C113     C      0.264080000000     0.863190000000     0.040750000000    -0.025414   
C114     C      0.308270000000     0.761660000000     0.005580000000    -0.00768024 
C115     C      0.897630000000     0.688880000000     0.040240000000     0.0118077  
C116     C      0.820520000000     0.621680000000     0.088830000000    -0.047382   
C117     C      0.706860000000     0.575170000000     0.059480000000    -0.0349994  
C118     C      0.772430000000     0.616850000000     0.053380000000     0.0201952  
C119     C      0.669590000000     0.611680000000     0.984890000000    -0.0398797  
C120     C      0.737410000000     0.646950000000     0.976060000000     0.0237195  
C121     C      0.882440000000     0.657740000000     0.082400000000    -0.0412866  
C122     C      0.786430000000     0.649370000000     0.011230000000    -0.012203   
C123     C      0.752570000000     0.676160000000     0.933330000000    -0.0482736  
C124     C      0.816630000000     0.707090000000     0.925230000000    -0.0404469  
C125     C      0.934900000000     0.743320000000     0.951010000000    -0.0222717  
C126     C      0.865680000000     0.710810000000     0.960170000000     0.0116453  
C127     C      0.965070000000     0.726810000000     0.033910000000    -0.0234365  
C128     C      0.850230000000     0.683150000000     0.003840000000    -0.0033315  
C129     C      0.775510000000     0.094270000000     0.040830000000     0.0117619  
C130     C      0.681040000000     0.143910000000     0.076410000000    -0.0425045  
C131     C      0.639200000000     0.248350000000     0.046520000000    -0.0205465  
C132     C      0.690680000000     0.197930000000     0.047040000000     0.00995323 
C133     C      0.730290000000     0.319530000000     0.002090000000    -0.0201645  
C134     C      0.759690000000     0.257010000000     0.989130000000     0.0113149  
C135     C      0.724350000000     0.093770000000     0.074350000000    -0.0438495  
C136     C      0.744290000000     0.200770000000     0.015350000000    -0.00532865 
C137     C      0.808250000000     0.256400000000     0.953930000000    -0.0424484  
C138     C      0.840350000000     0.200100000000     0.944710000000    -0.0435254  
C139     C      0.857320000000     0.082200000000     0.960370000000    -0.0244227  
C140     C      0.828140000000     0.144920000000     0.972670000000     0.0133252  
C141     C      0.825300000000     0.042010000000     0.041600000000    -0.0253551  
C142     C      0.783020000000     0.146510000000     0.009710000000    -0.00725951 
C143     C      0.191570000000     0.227200000000     0.969700000000     0.0105473  
C144     C      0.274850000000     0.300700000000     0.930850000000    -0.0497418  
C145     C      0.366320000000     0.365490000000     0.975250000000    -0.0458774  
C146     C      0.305450000000     0.317380000000     0.973190000000     0.0259435  
C147     C      0.373100000000     0.351280000000     0.058330000000    -0.042067   
C148     C      0.309220000000     0.306610000000     0.056800000000     0.0236106  
C149     C      0.218450000000     0.255830000000     0.929130000000    -0.039856   
C150     C      0.278290000000     0.290130000000     0.014250000000    -0.0146146  
C151     C      0.280590000000     0.281120000000     0.097750000000    -0.0488889  
C152     C      0.222590000000     0.238180000000     0.096450000000    -0.0401222  
C153     C      0.130880000000     0.172340000000     0.053460000000    -0.022219   
C154     C      0.192660000000     0.219510000000     0.054160000000     0.010519   
C155     C      0.131140000000     0.178470000000     0.966770000000    -0.0225784  
C156     C      0.220330000000     0.245610000000     0.012720000000    -0.00177206 
Cu1      Cu     0.046730000000     0.957130000000     0.959470000000     0.851234   
Cu2      Cu     0.044530000000     0.951200000000     0.044370000000     0.834025   
Cu3      Cu     0.969890000000     0.023720000000     0.468170000000     0.850587   
Cu4      Cu     0.977370000000     0.026400000000     0.553070000000     0.835265   
Cu5      Cu     0.601370000000     0.497610000000     0.017550000000     1.18073    
Cu6      Cu     0.488070000000     0.408770000000     0.015860000000     1.16023    
Cu7      Cu     0.519250000000     0.576480000000     0.521440000000     1.17373    
Cu8      Cu     0.423740000000     0.469690000000     0.518870000000     1.16888    
H1       H      0.538960000000     0.603890000000     0.662410000000     0.0450719  
H2       H      0.553700000000     0.355550000000     0.848020000000     0.0396638  
H3       H      0.367100000000     0.500700000000     0.686510000000     0.0378779  
H4       H      0.620380000000     0.534110000000     0.878060000000     0.0451694  
H5       H      0.417110000000     0.335130000000     0.803380000000     0.0363764  
H6       H      0.374110000000     0.370440000000     0.729400000000     0.0356876  
H7       H      0.400100000000     0.433620000000     0.658380000000     0.0446865  
H8       H      0.475320000000     0.368560000000     0.876040000000     0.0456497  
H9       H      0.598670000000     0.634800000000     0.734340000000     0.0358933  
H10      H      0.460310000000     0.613590000000     0.690370000000     0.0390512  
H11      H      0.643040000000     0.598470000000     0.807650000000     0.0357345  
H12      H      0.648760000000     0.465270000000     0.849220000000     0.0382009  
H13      H      0.392500000000     0.456430000000     0.377560000000     0.0430377  
H14      H      0.637900000000     0.445860000000     0.183640000000     0.0387298  
H15      H      0.510670000000     0.619300000000     0.358520000000     0.0360729  
H16      H      0.443190000000     0.402350000000     0.155350000000     0.0436202  
H17      H      0.669640000000     0.569900000000     0.233860000000     0.0360989  
H18      H      0.640080000000     0.606530000000     0.310760000000     0.0361571  
H19      H      0.576910000000     0.577220000000     0.382710000000     0.0447016  
H20      H      0.626240000000     0.524040000000     0.159510000000     0.04447    
H21      H      0.350630000000     0.409850000000     0.303850000000     0.0355661  
H22      H      0.382550000000     0.534500000000     0.353880000000     0.0390995  
H23      H      0.380440000000     0.372880000000     0.227140000000     0.0351641  
H24      H      0.509550000000     0.360390000000     0.179520000000     0.0375657  
H25      H      0.058400000000     0.802330000000     0.446330000000     0.0432371  
H26      H      0.232120000000     0.577010000000     0.524170000000     0.047346   
H27      H      0.071730000000     0.841140000000     0.580680000000     0.048034   
H28      H      0.368540000000     0.733180000000     0.515150000000     0.0458419  
H29      H      0.158240000000     0.629840000000     0.605350000000     0.0373603  
H30      H      0.074500000000     0.710910000000     0.607090000000     0.0372266  
H31      H      0.009890000000     0.788150000000     0.552950000000     0.0408448  
H32      H      0.271580000000     0.599830000000     0.577700000000     0.0426325  
H33      H      0.210020000000     0.843260000000     0.412240000000     0.0375215  
H34      H      0.105140000000     0.879860000000     0.441310000000     0.0467854  
H35      H      0.310990000000     0.784260000000     0.424200000000     0.0371167  
H36      H      0.363450000000     0.693120000000     0.460920000000     0.0422948  
H37      H      0.790630000000     0.927140000000     0.594030000000     0.0482162  
H38      H      0.638510000000     0.634200000000     0.463910000000     0.0398282  
H39      H      0.700480000000     0.964630000000     0.480900000000     0.0382178  
H40      H      0.607320000000     0.642090000000     0.590800000000     0.041337   
H41      H      0.628180000000     0.754450000000     0.403940000000     0.0369714  
H42      H      0.685590000000     0.864050000000     0.405750000000     0.0363051  
H43      H      0.768390000000     0.940610000000     0.446290000000     0.047807   
H44      H      0.561060000000     0.671240000000     0.451070000000     0.0411586  
H45      H      0.736480000000     0.833390000000     0.635150000000     0.03675    
H46      H      0.712340000000     0.952160000000     0.572400000000     0.0396917  
H47      H      0.685150000000     0.721400000000     0.631870000000     0.0374002  
H48      H      0.667800000000     0.621430000000     0.548430000000     0.0396048  
H49      H      0.576840000000     0.311800000000     0.526300000000     0.041772   
H50      H      0.879270000000     0.209700000000     0.582450000000     0.0484887  
H51      H      0.707850000000     0.471610000000     0.536300000000     0.0451059  
H52      H      0.883520000000     0.247710000000     0.448220000000     0.0431292  
H53      H      0.875040000000     0.340000000000     0.608690000000     0.037632   
H54      H      0.788650000000     0.418500000000     0.609630000000     0.0370067  
H55      H      0.667990000000     0.440200000000     0.587010000000     0.0405034  
H56      H      0.938490000000     0.263760000000     0.552020000000     0.0418858  
H57      H      0.628960000000     0.259580000000     0.432820000000     0.0374163  
H58      H      0.575860000000     0.347990000000     0.470640000000     0.0428725  
H59      H      0.730580000000     0.202730000000     0.418290000000     0.0377159  
H60      H      0.838120000000     0.169480000000     0.444030000000     0.0476377  
H61      H      0.345710000000     0.399230000000     0.444540000000     0.0456315  
H62      H      0.180710000000     0.098300000000     0.575380000000     0.0491967  
H63      H      0.432720000000     0.337540000000     0.550010000000     0.0424942  
H64      H      0.229640000000     0.082620000000     0.447220000000     0.0383613  
H65      H      0.270210000000     0.162870000000     0.618130000000     0.0365253  
H66      H      0.341740000000     0.265150000000     0.622580000000     0.0384057  
H67      H      0.372280000000     0.371510000000     0.586880000000     0.0452941  
H68      H      0.243990000000     0.066490000000     0.539630000000     0.0391809  
H69      H      0.308860000000     0.307000000000     0.393340000000     0.037854   
H70      H      0.418050000000     0.357410000000     0.460570000000     0.0403374  
H71      H      0.238300000000     0.204200000000     0.388080000000     0.0359649  
H72      H      0.159320000000     0.125180000000     0.429130000000     0.0477714  
H73      H      0.367430000000     0.560900000000     0.959480000000     0.0414114  
H74      H      0.292690000000     0.911610000000     0.043760000000     0.0415629  
H75      H      0.465560000000     0.645350000000     0.076980000000     0.041255   
H76      H      0.190870000000     0.820980000000     0.934410000000     0.0470654  
H77      H      0.368480000000     0.846760000000     0.099540000000     0.0375088  
H78      H      0.446100000000     0.760280000000     0.100370000000     0.0371129  
H79      H      0.497740000000     0.681450000000     0.025350000000     0.0441339  
H80      H      0.233410000000     0.855970000000     0.072720000000     0.0486133  
H81      H      0.276270000000     0.615710000000     0.921970000000     0.0371406  
H82      H      0.326910000000     0.560810000000     0.014140000000     0.0420342  
H83      H      0.221650000000     0.716080000000     0.907820000000     0.0378458  
H84      H      0.274270000000     0.860830000000     0.938270000000     0.0434999  
H85      H      0.645370000000     0.596310000000     0.951870000000     0.0437608  
H86      H      0.003270000000     0.691660000000     0.026840000000     0.0389226  
H87      H      0.670300000000     0.602630000000     0.078990000000     0.0385136  
H88      H      0.933000000000     0.779720000000     0.922900000000     0.0475526  
H89      H      0.918920000000     0.661030000000     0.110290000000     0.0369558  
H90      H      0.810190000000     0.597200000000     0.121400000000     0.0376915  
H91      H      0.716160000000     0.531310000000     0.079860000000     0.0414606  
H92      H      0.980070000000     0.752760000000     0.066370000000     0.0492096  
H93      H      0.715160000000     0.674130000000     0.906030000000     0.0379113  
H94      H      0.636290000000     0.645000000000     0.002170000000     0.0418362  
H95      H      0.827930000000     0.728290000000     0.891670000000     0.036547   
H96      H      0.967440000000     0.705440000000     0.938980000000     0.0385661  
H97      H      0.730550000000     0.352480000000     0.971690000000     0.0452675  
H98      H      0.796570000000     0.993470000000     0.042230000000     0.0414505  
H99      H      0.624700000000     0.259810000000     0.082480000000     0.0402712  
H100     H      0.902650000000     0.092330000000     0.938050000000     0.0469629  
H101     H      0.717420000000     0.053980000000     0.098660000000     0.0373539  
H102     H      0.640030000000     0.140720000000     0.101200000000     0.037182   
H103     H      0.591980000000     0.226200000000     0.030270000000     0.0484471  
H104     H      0.854580000000     0.046620000000     0.074300000000     0.0481839  
H105     H      0.820890000000     0.299380000000     0.933300000000     0.037659   
H106     H      0.764210000000     0.344610000000     0.028180000000     0.044229   
H107     H      0.875250000000     0.199830000000     0.915990000000     0.0373214  
H108     H      0.818910000000     0.052850000000     0.939560000000     0.0430448  
H109     H      0.406020000000     0.334950000000     0.086240000000     0.043933   
H110     H      0.135170000000     0.148460000000     0.935230000000     0.0486227  
H111     H      0.348830000000     0.414910000000     0.978780000000     0.0433431  
H112     H      0.085960000000     0.200440000000     0.058180000000     0.0397524  
H113     H      0.195850000000     0.243090000000     0.896000000000     0.0359492  
H114     H      0.294930000000     0.322150000000     0.899090000000     0.0383196  
H115     H      0.394930000000     0.363910000000     0.942550000000     0.0452465  
H116     H      0.085130000000     0.205370000000     0.963310000000     0.0384539  
H117     H      0.303470000000     0.294240000000     0.130730000000     0.03723    
H118     H      0.360290000000     0.401310000000     0.066670000000     0.0397912  
H119     H      0.201320000000     0.218930000000     0.128530000000     0.0362189  
H120     H      0.132020000000     0.138460000000     0.083190000000     0.0484231  
N1       N      0.554520000000     0.445640000000     0.882340000000    -0.178456   
N2       N      0.461910000000     0.524530000000     0.655050000000    -0.177805   
N3       N      0.542890000000     0.451990000000     0.151810000000    -0.177993   
N4       N      0.477220000000     0.527520000000     0.385870000000    -0.178393   
N5       N      0.323640000000     0.636960000000     0.518080000000    -0.174945   
N6       N      0.062440000000     0.856100000000     0.508160000000    -0.162875   
N7       N      0.576620000000     0.653220000000     0.521460000000    -0.224926   
N8       N      0.784310000000     0.940420000000     0.520120000000    -0.165447   
N9       N      0.884150000000     0.193950000000     0.509950000000    -0.16239    
N10      N      0.619280000000     0.408820000000     0.524520000000    -0.175992   
N11      N      0.165050000000     0.104290000000     0.501930000000    -0.165156   
N12      N      0.363010000000     0.394520000000     0.516210000000    -0.218737   
N13      N      0.218900000000     0.863890000000     0.000170000000    -0.162228   
N14      N      0.429260000000     0.598230000000     0.015400000000    -0.176451   
N15      N      0.962730000000     0.771130000000     0.994270000000    -0.165894   
N16      N      0.678710000000     0.555410000000     0.014360000000    -0.226043   
N17      N      0.872290000000     0.044500000000     0.001850000000    -0.162273   
N18      N      0.661730000000     0.309100000000     0.021990000000    -0.173711   
N19      N      0.124950000000     0.138470000000     0.008820000000    -0.165337   
N20      N      0.409760000000     0.350950000000     0.014340000000    -0.219526   
O1       O      0.134580000000     0.913150000000     0.963070000000    -0.396435   
O2       O      0.958850000000     0.000170000000     0.963930000000    -0.397898   
O3       O      0.095630000000     0.046240000000     0.967230000000    -0.401987   
O4       O      0.996710000000     0.867970000000     0.960070000000    -0.403114   
O5       O      0.001790000000     0.859740000000     0.036580000000    -0.401252   
O6       O      0.088060000000     0.042950000000     0.043850000000    -0.401523   
O7       O      0.951590000000     0.988510000000     0.040190000000    -0.388147   
O8       O      0.137460000000     0.914810000000     0.039870000000    -0.389449   
O9       O      0.013740000000     0.938730000000     0.471610000000    -0.398693   
O10      O      0.927060000000     0.108900000000     0.472500000000    -0.399334   
O11      O      0.063920000000     0.070340000000     0.467870000000    -0.400598   
O12      O      0.876470000000     0.977550000000     0.477040000000    -0.400548   
O13      O      0.882340000000     0.983210000000     0.553670000000    -0.401713   
O14      O      0.072240000000     0.068270000000     0.544450000000    -0.401117   
O15      O      0.938240000000     0.115380000000     0.548840000000    -0.388822   
O16      O      0.015220000000     0.937280000000     0.548440000000    -0.39045    
O17      O      0.585480000000     0.491210000000     0.951760000000    -0.483822   
O18      O      0.593070000000     0.484150000000     0.083490000000    -0.477451   
O19      O      0.645470000000     0.416940000000     0.014380000000    -0.466814   
O20      O      0.532940000000     0.558870000000     0.024590000000    -0.474987   
O21      O      0.445640000000     0.490290000000     0.007390000000    -0.47403    
O22      O      0.556350000000     0.347240000000     0.025530000000    -0.457088   
O23      O      0.496200000000     0.424280000000     0.081740000000    -0.478895   
O24      O      0.511440000000     0.406570000000     0.951080000000    -0.477923   
O25      O      0.522320000000     0.555370000000     0.456370000000    -0.480634   
O26      O      0.500580000000     0.569360000000     0.586860000000    -0.476842   
O27      O      0.582260000000     0.510590000000     0.531600000000    -0.46736    
O28      O      0.435420000000     0.618250000000     0.512030000000    -0.46895    
O29      O      0.360570000000     0.535620000000     0.526290000000    -0.46243    
O30      O      0.508550000000     0.428420000000     0.513970000000    -0.478113   
O31      O      0.434450000000     0.478630000000     0.585070000000    -0.477521   
O32      O      0.427710000000     0.492780000000     0.453840000000    -0.478148   


