data_structure

_audit_creation_method RASPA-1.0
_audit_creation_date 2023-5-19
_audit_author_name 'Poobodin Mano'

_cell_length_a    17.4571
_cell_length_b    17.1688
_cell_length_c    17.465
_cell_angle_alpha 90
_cell_angle_beta  90
_cell_angle_gamma 90
_cell_volume      5234.57

_symmetry_cell_setting          triclinic
_symmetry_space_group_name_Hall 'P 1'
_symmetry_space_group_name_H-M  'P 1'
_symmetry_Int_Tables_number     1

_symmetry_equiv_pos_as_xyz 'x,y,z'

loop_
_atom_site_label
_atom_site_type_symbol
_atom_site_fract_x
_atom_site_fract_y
_atom_site_fract_z
_atom_site_charge
C1       C      0.038030000000     0.149210000000     0.570270000000     0.419901   
C2       C      0.062200000000     0.852560000000     0.491360000000     0.416584   
C3       C      0.205060000000     0.010280000000     0.547740000000     0.411228   
C4       C      0.902210000000     0.998040000000     0.518850000000     0.414998   
C5       C      0.067570000000     0.480770000000     0.371490000000     0.413397   
C6       C      0.006060000000     0.510330000000     0.667990000000     0.416397   
C7       C      0.000940000000     0.347250000000     0.530630000000     0.421727   
C8       C      0.078210000000     0.645150000000     0.515080000000     0.415857   
C9       C      0.541730000000     0.052090000000     0.700830000000     0.414844   
C10      C      0.574830000000     0.079290000000     0.400770000000     0.415612   
C11      C      0.707580000000     0.055330000000     0.564030000000     0.415042   
C12      C      0.405310000000     0.071150000000     0.533620000000     0.410253   
C13      C      0.525510000000     0.066940000000     0.200380000000     0.417413   
C14      C      0.511120000000     0.104780000000     0.899830000000     0.414463   
C15      C      0.559790000000     0.238070000000     0.069940000000     0.413296   
C16      C      0.484370000000     0.940380000000     0.032980000000     0.41772    
C17      C      0.043630000000     0.534330000000     0.171050000000     0.413441   
C18      C      0.032740000000     0.554900000000     0.867890000000     0.417798   
C19      C      0.187610000000     0.538140000000     0.011990000000     0.419409   
C20      C      0.884510000000     0.543350000000     0.024970000000     0.415851   
C21      C      0.540420000000     0.443830000000     0.102000000000     0.413743   
C22      C      0.525540000000     0.739280000000     0.011770000000     0.41774    
C23      C      0.384090000000     0.587220000000     0.057220000000     0.41933    
C24      C      0.687360000000     0.599660000000     0.062060000000     0.416173   
Cu1      Cu     0.048800000000     0.982520000000     0.599830000000     0.859099   
Cu2      Cu     0.058130000000     0.020210000000     0.463540000000     0.853033   
Cu3      Cu     0.105540000000     0.479120000000     0.536700000000     0.855616   
Cu4      Cu     0.971600000000     0.512680000000     0.504070000000     0.862367   
Cu5      Cu     0.553600000000     0.993310000000     0.543440000000     0.853865   
Cu6      Cu     0.559920000000     0.135650000000     0.557160000000     0.847451   
Cu7      Cu     0.588970000000     0.071830000000     0.044470000000     0.856759   
Cu8      Cu     0.452210000000     0.106780000000     0.056830000000     0.854052   
Cu9      Cu     0.035320000000     0.470420000000     0.013510000000     0.846322   
Cu10     Cu     0.037580000000     0.613990000000     0.024650000000     0.869803   
Cu11     Cu     0.532260000000     0.614950000000     0.125780000000     0.859626   
Cu12     Cu     0.538590000000     0.569960000000     0.991030000000     0.85952    
H1       H      0.791440000000     0.631310000000     0.109710000000     0.11487    
H2       H      0.779510000000     0.489850000000     0.013220000000     0.1142     
H3       H      0.291920000000     0.485910000000     0.989040000000     0.116961   
H4       H      0.278850000000     0.615480000000     0.102270000000     0.116314   
H5       H      0.530810000000     0.826100000000     0.929940000000     0.111113   
H6       H      0.409120000000     0.846980000000     0.032890000000     0.111275   
H7       H      0.527060000000     0.352590000000     0.179440000000     0.111221   
H8       H      0.636400000000     0.329010000000     0.058280000000     0.112332   
H9       H      0.551490000000     0.992650000000     0.803550000000     0.113689   
H10      H      0.457520000000     0.136610000000     0.798950000000     0.115478   
H11      H      0.610810000000     0.136540000000     0.303290000000     0.112472   
H12      H      0.474550000000     0.034730000000     0.301280000000     0.115901   
H13      H      0.058670000000     0.613850000000     0.768300000000     0.11309    
H14      H      0.931830000000     0.508180000000     0.760020000000     0.112432   
H15      H      0.025090000000     0.585660000000     0.274940000000     0.11554    
H16      H      0.130590000000     0.450780000000     0.274000000000     0.11254    
H17      H      0.301920000000     0.125680000000     0.507960000000     0.113924   
H18      H      0.305060000000     0.982280000000     0.603520000000     0.115818   
H19      H      0.800050000000     0.995420000000     0.460020000000     0.114764   
H20      H      0.814610000000     0.095700000000     0.595440000000     0.111999   
H21      H      0.151640000000     0.735410000000     0.542060000000     0.112074   
H22      H      0.055470000000     0.762910000000     0.412360000000     0.111065   
H23      H      0.030820000000     0.241720000000     0.646200000000     0.113635   
H24      H      0.929450000000     0.251730000000     0.516990000000     0.112661   
N1       N      0.764820000000     0.599800000000     0.065880000000    -0.174837   
N2       N      0.807060000000     0.542080000000     0.027370000000    -0.174773   
N3       N      0.264860000000     0.535420000000     0.011190000000    -0.176373   
N4       N      0.306870000000     0.586850000000     0.057330000000    -0.176553   
N5       N      0.515870000000     0.813060000000     0.986500000000    -0.173596   
N6       N      0.465820000000     0.864520000000     0.024140000000    -0.175003   
N7       N      0.542260000000     0.367930000000     0.123540000000    -0.174196   
N8       N      0.582020000000     0.313370000000     0.078260000000    -0.173325   
N9       N      0.536910000000     0.045750000000     0.777960000000    -0.174899   
N10      N      0.502390000000     0.104290000000     0.822790000000    -0.174332   
N11      N      0.580680000000     0.088300000000     0.324160000000    -0.174995   
N12      N      0.526110000000     0.053000000000     0.276420000000    -0.174997   
N13      N      0.035170000000     0.562710000000     0.790960000000    -0.17466    
N14      N      0.988560000000     0.517470000000     0.743010000000    -0.174166   
N15      N      0.043880000000     0.534220000000     0.248650000000    -0.174138   
N16      N      0.082160000000     0.479480000000     0.295060000000    -0.174287   
N17      N      0.327800000000     0.073920000000     0.526080000000    -0.174107   
N18      N      0.282040000000     0.014610000000     0.558190000000    -0.173708   
N19      N      0.825260000000     0.005180000000     0.513540000000    -0.17404    
N20      N      0.784950000000     0.051690000000     0.566440000000    -0.174436   
N21      N      0.099060000000     0.720990000000     0.517020000000    -0.174599   
N22      N      0.063990000000     0.776850000000     0.470040000000    -0.174247   
N23      N      0.022820000000     0.223620000000     0.589570000000    -0.175809   
N24      N      0.981270000000     0.271910000000     0.539590000000    -0.175901   
O1       O      0.046860000000     0.098310000000     0.623230000000    -0.397457   
O2       O      0.052890000000     0.870210000000     0.562190000000    -0.384847   
O3       O      0.164360000000     0.982950000000     0.602410000000    -0.397542   
O4       O      0.933280000000     0.987990000000     0.584640000000    -0.387219   
O5       O      0.942840000000     0.006200000000     0.458270000000    -0.39348    
O6       O      0.174060000000     0.031970000000     0.484330000000    -0.380874   
O7       O      0.068920000000     0.905290000000     0.439900000000    -0.39711    
O8       O      0.040660000000     0.130580000000     0.499360000000    -0.390745   
O9       O      0.120110000000     0.463070000000     0.420280000000    -0.387232   
O10      O      0.075850000000     0.498930000000     0.647780000000    -0.383537   
O11      O      0.069140000000     0.368370000000     0.547390000000    -0.391893   
O12      O      0.129530000000     0.593560000000     0.527750000000    -0.400467   
O13      O      0.007880000000     0.626200000000     0.503570000000    -0.38383    
O14      O      0.950870000000     0.396150000000     0.506520000000    -0.39571    
O15      O      0.952300000000     0.515850000000     0.618450000000    -0.398734   
O16      O      0.001970000000     0.505040000000     0.393590000000    -0.39457    
O17      O      0.552920000000     0.990670000000     0.660300000000    -0.392611   
O18      O      0.555480000000     0.012920000000     0.428560000000    -0.386518   
O19      O      0.669590000000     0.994940000000     0.543890000000    -0.387715   
O20      O      0.438050000000     0.005030000000     0.542890000000    -0.38915    
O21      O      0.444700000000     0.134480000000     0.532780000000    -0.38855    
O22      O      0.673720000000     0.119910000000     0.579260000000    -0.390478   
O23      O      0.584540000000     0.138670000000     0.443920000000    -0.397347   
O24      O      0.536600000000     0.119370000000     0.669640000000    -0.38879    
O25      O      0.588160000000     0.065350000000     0.161710000000    -0.384973   
O26      O      0.573630000000     0.079610000000     0.929420000000    -0.386607   
O27      O      0.610570000000     0.187640000000     0.051320000000    -0.396917   
O28      O      0.555090000000     0.959690000000     0.036270000000    -0.386945   
O29      O      0.430840000000     0.991480000000     0.038350000000    -0.393735   
O30      O      0.489190000000     0.218470000000     0.078010000000    -0.380075   
O31      O      0.454930000000     0.126660000000     0.941950000000    -0.395299   
O32      O      0.461210000000     0.081060000000     0.168480000000    -0.400885   
O33      O      0.047570000000     0.470790000000     0.131860000000    -0.378071   
O34      O      0.024440000000     0.487230000000     0.898160000000    -0.381033   
O35      O      0.150130000000     0.475090000000     0.001800000000    -0.399108   
O36      O      0.920270000000     0.478330000000     0.022200000000    -0.398386   
O37      O      0.920640000000     0.608560000000     0.025000000000    -0.386642   
O38      O      0.153500000000     0.602910000000     0.025890000000    -0.39198    
O39      O      0.041180000000     0.615830000000     0.909140000000    -0.401578   
O40      O      0.035200000000     0.600140000000     0.138160000000    -0.405836   
O41      O      0.535780000000     0.498080000000     0.152780000000    -0.390835   
O42      O      0.523840000000     0.725050000000     0.083820000000    -0.382712   
O43      O      0.418210000000     0.609000000000     0.118130000000    -0.403686   
O44      O      0.648610000000     0.620950000000     0.120780000000    -0.39719    
O45      O      0.654240000000     0.575500000000     0.000970000000    -0.388725   
O46      O      0.421490000000     0.566650000000     0.997050000000    -0.387936   
O47      O      0.534970000000     0.684680000000     0.962610000000    -0.397322   
O48      O      0.543530000000     0.459950000000     0.030640000000    -0.390238   


