data_structure

_audit_creation_method RASPA-1.0
_audit_creation_date 2023-5-19
_audit_author_name 'Poobodin Mano'

_cell_length_a    17.8633
_cell_length_b    17.8588
_cell_length_c    17.6061
_cell_angle_alpha 90
_cell_angle_beta  90
_cell_angle_gamma 90
_cell_volume      5616.65

_symmetry_cell_setting          triclinic
_symmetry_space_group_name_Hall 'P 1'
_symmetry_space_group_name_H-M  'P 1'
_symmetry_Int_Tables_number     1

_symmetry_equiv_pos_as_xyz 'x,y,z'

loop_
_atom_site_label
_atom_site_type_symbol
_atom_site_fract_x
_atom_site_fract_y
_atom_site_fract_z
_atom_site_charge
C1       C      0.964540000000     0.160680000000     0.595680000000     0.419433   
C2       C      0.247530000000     0.069780000000     0.580730000000     0.41957    
C3       C      0.062760000000     0.971640000000     0.603330000000     0.417825   
C4       C      0.152160000000     0.253710000000     0.569740000000     0.419275   
C5       C      0.052830000000     0.632580000000     0.446950000000     0.419901   
C6       C      0.187930000000     0.577290000000     0.709960000000     0.417803   
C7       C      0.188000000000     0.489920000000     0.518380000000     0.420503   
C8       C      0.050760000000     0.724210000000     0.642090000000     0.416244   
C9       C      0.560120000000     0.053400000000     0.751960000000     0.417271   
C10      C      0.677610000000     0.070160000000     0.475010000000     0.421378   
C11      C      0.750070000000     0.104280000000     0.669850000000     0.420603   
C12      C      0.490870000000     0.014210000000     0.553340000000     0.418537   
C13      C      0.500720000000     0.026250000000     0.000610000000     0.418023   
C14      C      0.598010000000     0.132410000000     0.264740000000     0.421942   
C15      C      0.562030000000     0.943820000000     0.187700000000     0.422645   
C16      C      0.535580000000     0.220460000000     0.079680000000     0.417066   
C17      C      0.013690000000     0.539010000000     0.233520000000     0.419834   
C18      C      0.113740000000     0.567240000000     0.950840000000     0.420541   
C19      C      0.195930000000     0.597090000000     0.142660000000     0.421644   
C20      C      0.933170000000     0.503720000000     0.037590000000     0.418712   
C21      C      0.408620000000     0.661470000000     0.078780000000     0.42024    
C22      C      0.682680000000     0.546240000000     0.065580000000     0.419084   
C23      C      0.489840000000     0.469500000000     0.031420000000     0.418144   
C24      C      0.603590000000     0.733330000000     0.109640000000     0.422816   
C25      C      0.801490000000     0.524830000000     0.996980000000     0.0806496  
C26      C      0.295100000000     0.694050000000     0.152880000000     0.0823047  
C27      C      0.636250000000     0.828790000000     0.206080000000     0.0841503  
C28      C      0.461080000000     0.336130000000     0.060570000000     0.0782535  
C29      C      0.524330000000     0.983410000000     0.868330000000     0.0801993  
C30      C      0.700620000000     0.144550000000     0.359070000000     0.0822933  
C31      C      0.187190000000     0.523620000000     0.839530000000     0.0814427  
C32      C      0.959450000000     0.597070000000     0.348870000000     0.0815776  
C33      C      0.361680000000     0.037920000000     0.507370000000     0.0814672  
C34      C      0.852910000000     0.196820000000     0.671240000000     0.0793144  
C35      C      0.048800000000     0.857860000000     0.682300000000     0.0813061  
C36      C      0.190010000000     0.355680000000     0.484000000000     0.0834045  
Cu1      Cu     0.099940000000     0.107380000000     0.517730000000     0.853167   
Cu2      Cu     0.111400000000     0.119730000000     0.657370000000     0.850712   
Cu3      Cu     0.172230000000     0.647730000000     0.560640000000     0.849937   
Cu4      Cu     0.066400000000     0.566250000000     0.598400000000     0.855233   
Cu5      Cu     0.639960000000     0.994350000000     0.618680000000     0.848624   
Cu6      Cu     0.598770000000     0.126310000000     0.608230000000     0.855103   
Cu7      Cu     0.613930000000     0.078530000000     0.108640000000     0.854511   
Cu8      Cu     0.483520000000     0.084260000000     0.155990000000     0.850318   
Cu9      Cu     0.086320000000     0.486080000000     0.093570000000     0.851633   
Cu10     Cu     0.040860000000     0.616980000000     0.089940000000     0.85354    
Cu11     Cu     0.549350000000     0.620000000000     0.003310000000     0.852978   
Cu12     Cu     0.540920000000     0.584380000000     0.138990000000     0.852587   
H1       H      0.777020000000     0.499940000000     0.114960000000     0.112662   
H2       H      0.862480000000     0.420950000000     0.996810000000     0.106972   
H3       H      0.770440000000     0.504040000000     0.946450000000     0.0278613  
H4       H      0.817070000000     0.584170000000     0.986210000000     0.0359114  
H5       H      0.317020000000     0.718530000000     0.034550000000     0.108169   
H6       H      0.302700000000     0.577740000000     0.183210000000     0.116788   
H7       H      0.330420000000     0.710620000000     0.202100000000     0.0275564  
H8       H      0.249690000000     0.736370000000     0.148260000000     0.0286735  
H9       H      0.524330000000     0.850680000000     0.247250000000     0.109407   
H10      H      0.652720000000     0.835510000000     0.085000000000     0.114845   
H11      H      0.687600000000     0.862920000000     0.214840000000     0.0267518  
H12      H      0.638140000000     0.782750000000     0.248550000000     0.0283579  
H13      H      0.577260000000     0.316920000000     0.029850000000     0.111716   
H14      H      0.455780000000     0.391070000000     0.951930000000     0.106761   
H15      H      0.411850000000     0.301600000000     0.044200000000     0.0287006  
H16      H      0.453370000000     0.353630000000     0.120670000000     0.0367152  
H17      H      0.418410000000     0.987320000000     0.927430000000     0.106186   
H18      H      0.506140000000     0.100940000000     0.844000000000     0.112846   
H19      H      0.581440000000     0.966310000000     0.886550000000     0.0368859  
H20      H      0.500310000000     0.936990000000     0.834000000000     0.0268794  
H21      H      0.734070000000     0.029520000000     0.380200000000     0.107795   
H22      H      0.583420000000     0.170230000000     0.374730000000     0.1166     
H23      H      0.717580000000     0.193720000000     0.393790000000     0.0267426  
H24      H      0.739900000000     0.142150000000     0.310160000000     0.0291381  
H25      H      0.126790000000     0.627930000000     0.852160000000     0.113994   
H26      H      0.277190000000     0.583790000000     0.785040000000     0.107068   
H27      H      0.230750000000     0.501070000000     0.878460000000     0.0277899  
H28      H      0.152370000000     0.476010000000     0.819320000000     0.0350724  
H29      H      0.047670000000     0.679020000000     0.339170000000     0.113481   
H30      H      0.996030000000     0.482310000000     0.335040000000     0.109546   
H31      H      0.923420000000     0.576660000000     0.396010000000     0.0293164  
H32      H      0.922960000000     0.631920000000     0.311880000000     0.0287321  
H33      H      0.350920000000     0.049790000000     0.629150000000     0.114689   
H34      H      0.419080000000     0.932030000000     0.513210000000     0.106501   
H35      H      0.325110000000     0.010400000000     0.464540000000     0.0283707  
H36      H      0.380080000000     0.092650000000     0.483740000000     0.0325789  
H37      H      0.855430000000     0.084450000000     0.714210000000     0.112458   
H38      H      0.862420000000     0.191800000000     0.549060000000     0.108656   
H39      H      0.809820000000     0.241210000000     0.664360000000     0.0295913  
H40      H      0.891540000000     0.216230000000     0.716660000000     0.0302125  
H41      H      0.032160000000     0.868020000000     0.560620000000     0.11565    
H42      H      0.961750000000     0.775250000000     0.697420000000     0.105942   
H43      H      0.108370000000     0.853160000000     0.700090000000     0.0332622  
H44      H      0.018300000000     0.889500000000     0.727060000000     0.0265989  
H45      H      0.194120000000     0.355260000000     0.608070000000     0.116448   
H46      H      0.276640000000     0.437840000000     0.463500000000     0.105267   
H47      H      0.227250000000     0.318340000000     0.450380000000     0.0250214  
H48      H      0.135220000000     0.359290000000     0.454160000000     0.0335033  
N1       N      0.867940000000     0.478270000000     0.007680000000    -0.226241   
N2       N      0.753840000000     0.520030000000     0.064310000000    -0.224939   
N3       N      0.264900000000     0.619050000000     0.165860000000    -0.224121   
N4       N      0.340000000000     0.694060000000     0.083210000000    -0.224289   
N5       N      0.635360000000     0.799650000000     0.128530000000    -0.224947   
N6       N      0.569500000000     0.874510000000     0.218230000000    -0.225104   
N7       N      0.464660000000     0.400990000000     0.009780000000    -0.225444   
N8       N      0.529750000000     0.291680000000     0.053350000000    -0.224004   
N9       N      0.528550000000     0.051310000000     0.822050000000    -0.22364    
N10      N      0.475830000000     0.996510000000     0.934230000000    -0.225332   
N11      N      0.622920000000     0.154300000000     0.334000000000    -0.223914   
N12      N      0.707280000000     0.075840000000     0.404260000000    -0.224745   
N13      N      0.224070000000     0.560980000000     0.775710000000    -0.226292   
N14      N      0.140380000000     0.577780000000     0.879670000000    -0.22445    
N15      N      0.989150000000     0.533070000000     0.306280000000    -0.224063   
N16      N      0.021400000000     0.642860000000     0.377520000000    -0.223861   
N17      N      0.426090000000     0.989550000000     0.521760000000    -0.22562    
N18      N      0.320710000000     0.049990000000     0.578220000000    -0.224658   
N19      N      0.893030000000     0.186370000000     0.599390000000    -0.224297   
N20      N      0.819080000000     0.125630000000     0.693610000000    -0.224147   
N21      N      0.015510000000     0.783170000000     0.675310000000    -0.225638   
N22      N      0.043990000000     0.898240000000     0.610090000000    -0.222888   
N23      N      0.223870000000     0.430160000000     0.487980000000    -0.227023   
N24      N      0.179340000000     0.323980000000     0.560140000000    -0.22245    
O1       O      0.992750000000     0.144460000000     0.530660000000    -0.399456   
O2       O      0.208800000000     0.073320000000     0.519340000000    -0.400446   
O3       O      0.066070000000     0.000570000000     0.536820000000    -0.401846   
O4       O      0.135520000000     0.214460000000     0.511200000000    -0.404436   
O5       O      0.145050000000     0.227100000000     0.637110000000    -0.398615   
O6       O      0.078300000000     0.010500000000     0.662720000000    -0.398927   
O7       O      0.218590000000     0.085600000000     0.645280000000    -0.403663   
O8       O      0.002920000000     0.153390000000     0.656790000000    -0.402515   
O9       O      0.114740000000     0.665680000000     0.462440000000    -0.400437   
O10      O      0.219860000000     0.620380000000     0.661580000000    -0.401977   
O11      O      0.218970000000     0.554570000000     0.514630000000    -0.402027   
O12      O      0.115410000000     0.733070000000     0.611500000000    -0.397264   
O13      O      0.018550000000     0.660030000000     0.642450000000    -0.40189    
O14      O      0.124240000000     0.480890000000     0.550590000000    -0.400204   
O15      O      0.122730000000     0.549800000000     0.697260000000    -0.399942   
O16      O      0.021320000000     0.589080000000     0.495280000000    -0.4018     
O17      O      0.590520000000     0.994500000000     0.723450000000    -0.396746   
O18      O      0.684590000000     0.008790000000     0.512530000000    -0.397261   
O19      O      0.735450000000     0.034230000000     0.665570000000    -0.402817   
O20      O      0.541110000000     0.966030000000     0.570580000000    -0.403933   
O21      O      0.501040000000     0.084470000000     0.565570000000    -0.398436   
O22      O      0.701710000000     0.153670000000     0.649650000000    -0.399665   
O23      O      0.642910000000     0.126360000000     0.503160000000    -0.407581   
O24      O      0.558310000000     0.115120000000     0.715000000000    -0.404223   
O25      O      0.570760000000     0.039160000000     0.009760000000    -0.39991    
O26      O      0.645110000000     0.116440000000     0.212280000000    -0.403154   
O27      O      0.616710000000     0.972940000000     0.150740000000    -0.403096   
O28      O      0.597980000000     0.185590000000     0.072140000000    -0.400048   
O29      O      0.479170000000     0.189170000000     0.111700000000    -0.401228   
O30      O      0.500340000000     0.979290000000     0.196880000000    -0.402037   
O31      O      0.527280000000     0.126570000000     0.253560000000    -0.400957   
O32      O      0.453380000000     0.040490000000     0.053540000000    -0.400642   
O33      O      0.043120000000     0.481790000000     0.200890000000    -0.398741   
O34      O      0.125220000000     0.505190000000     0.986050000000    -0.3976     
O35      O      0.182900000000     0.526920000000     0.136460000000    -0.404083   
O36      O      0.985750000000     0.456590000000     0.050020000000    -0.404411   
O37      O      0.941860000000     0.573730000000     0.052140000000    -0.397011   
O38      O      0.145530000000     0.645890000000     0.126270000000    -0.399053   
O39      O      0.078010000000     0.621050000000     0.982120000000    -0.406572   
O40      O      0.007560000000     0.601700000000     0.198670000000    -0.404256   
O41      O      0.444790000000     0.664040000000     0.015840000000    -0.399843   
O42      O      0.653340000000     0.573640000000     0.005060000000    -0.400838   
O43      O      0.504110000000     0.518280000000     0.980010000000    -0.40295    
O44      O      0.594750000000     0.717640000000     0.039230000000    -0.403455   
O45      O      0.583590000000     0.687320000000     0.161850000000    -0.401678   
O46      O      0.500180000000     0.484240000000     0.102040000000    -0.398733   
O47      O      0.646280000000     0.544040000000     0.128210000000    -0.403133   
O48      O      0.436600000000     0.629410000000     0.137480000000    -0.402767   


