data_structure

_audit_creation_method RASPA-1.0
_audit_creation_date 2023-5-19
_audit_author_name 'Poobodin Mano'

_cell_length_a    20.9619
_cell_length_b    20.9409
_cell_length_c    21.3044
_cell_angle_alpha 89.9998
_cell_angle_beta  89.9998
_cell_angle_gamma 89.9998
_cell_volume      9351.8

_symmetry_cell_setting          triclinic
_symmetry_space_group_name_Hall 'P 1'
_symmetry_space_group_name_H-M  'P 1'
_symmetry_Int_Tables_number     1

_symmetry_equiv_pos_as_xyz 'x,y,z'

loop_
_atom_site_label
_atom_site_type_symbol
_atom_site_fract_x
_atom_site_fract_y
_atom_site_fract_z
_atom_site_charge
C1       C      0.102050000000     0.958430000000     0.507170000000     0.413821   
C2       C      0.027160000000     0.196740000000     0.551560000000     0.413789   
C3       C      0.941700000000     0.041650000000     0.520290000000     0.413373   
C4       C      0.184190000000     0.113090000000     0.541790000000     0.414101   
C5       C      0.063920000000     0.541390000000     0.430190000000     0.413431   
C6       C      0.096180000000     0.599290000000     0.671060000000     0.414037   
C7       C      0.066270000000     0.446920000000     0.581680000000     0.413006   
C8       C      0.091960000000     0.692600000000     0.524280000000     0.414564   
C9       C      0.581150000000     0.030870000000     0.674610000000     0.412629   
C10      C      0.520650000000     0.046170000000     0.432820000000     0.414485   
C11      C      0.673040000000     0.015300000000     0.520440000000     0.412297   
C12      C      0.431990000000     0.062740000000     0.582470000000     0.414465   
C13      C      0.557940000000     0.072900000000     0.185050000000     0.415051   
C14      C      0.596070000000     0.020630000000     0.943810000000     0.413365   
C15      C      0.561710000000     0.169370000000     0.040550000000     0.414259   
C16      C      0.589760000000     0.922930000000     0.093160000000     0.414094   
C17      C      0.027530000000     0.578170000000     0.176960000000     0.412914   
C18      C      0.083260000000     0.600740000000     0.934550000000     0.41474    
C19      C      0.177730000000     0.614130000000     0.084740000000     0.413682   
C20      C      0.936640000000     0.566220000000     0.023710000000     0.414381   
C21      C      0.449080000000     0.590110000000     0.055290000000     0.413382   
C22      C      0.690220000000     0.515690000000     0.030100000000     0.414955   
C23      C      0.530950000000     0.435140000000     0.020540000000     0.414191   
C24      C      0.610210000000     0.672620000000     0.061450000000     0.414205   
C25      C      0.857480000000     0.493980000000     0.975470000000    -0.00763139 
C26      C      0.785240000000     0.491130000000     0.965070000000    -0.00890288 
C27      C      0.353210000000     0.602390000000     0.122580000000    -0.00996223 
C28      C      0.285100000000     0.576430000000     0.114660000000    -0.0092295  
C29      C      0.655420000000     0.831560000000     0.129430000000    -0.00870647 
C30      C      0.649880000000     0.758470000000     0.131660000000    -0.00886243 
C31      C      0.490580000000     0.330970000000     0.058370000000    -0.0100707  
C32      C      0.488950000000     0.261760000000     0.034730000000    -0.00822418 
C33      C      0.580950000000     0.969820000000     0.774510000000    -0.0102497  
C34      C      0.555570000000     0.985990000000     0.840300000000    -0.00806613 
C35      C      0.484940000000     0.103880000000     0.270560000000    -0.00774316 
C36      C      0.486570000000     0.111070000000     0.342020000000    -0.00890751 
C37      C      0.079420000000     0.662830000000     0.835500000000    -0.0095152  
C38      C      0.055230000000     0.645830000000     0.769670000000    -0.00889399 
C39      C      0.994370000000     0.515910000000     0.339670000000    -0.00830945 
C40      C      0.999340000000     0.510250000000     0.267890000000    -0.0088056  
C41      C      0.347330000000     0.140470000000     0.607100000000    -0.00736707 
C42      C      0.274440000000     0.143600000000     0.609980000000    -0.0103071  
C43      C      0.773490000000     0.054380000000     0.473950000000    -0.0098352  
C44      C      0.841220000000     0.030910000000     0.458970000000    -0.00975154 
C45      C      0.151950000000     0.857770000000     0.543210000000    -0.0101919  
C46      C      0.160000000000     0.789100000000     0.519230000000    -0.00787153 
C47      C      0.999750000000     0.358510000000     0.622470000000    -0.00912507 
C48      C      0.001310000000     0.285250000000     0.624480000000    -0.00907754 
Cu1      Cu     0.061550000000     0.065560000000     0.587120000000     0.846074   
Cu2      Cu     0.064910000000     0.088460000000     0.473150000000     0.849486   
Cu3      Cu     0.137660000000     0.561820000000     0.545510000000     0.850946   
Cu4      Cu     0.021070000000     0.576980000000     0.556660000000     0.845359   
Cu5      Cu     0.541240000000     0.980580000000     0.552350000000     0.849751   
Cu6      Cu     0.564220000000     0.096520000000     0.553880000000     0.847999   
Cu7      Cu     0.634760000000     0.054080000000     0.071800000000     0.845865   
Cu8      Cu     0.518610000000     0.037670000000     0.057670000000     0.852038   
Cu9      Cu     0.068860000000     0.532040000000     0.053280000000     0.846151   
Cu10     Cu     0.044600000000     0.647610000000     0.058500000000     0.850397   
Cu11     Cu     0.567260000000     0.564900000000     0.984860000000     0.850385   
Cu12     Cu     0.572740000000     0.542810000000     0.098950000000     0.84934    
H1       H      0.845540000000     0.594410000000     0.999140000000     0.106288   
H2       H      0.773700000000     0.477640000000     0.065380000000     0.104906   
H3       H      0.881810000000     0.487820000000     0.929490000000     0.0363755  
H4       H      0.872130000000     0.454010000000     0.006730000000     0.0437792  
H5       H      0.772880000000     0.445150000000     0.942050000000     0.0356918  
H6       H      0.771000000000     0.530780000000     0.933250000000     0.0452893  
H7       H      0.361640000000     0.623270000000     0.022940000000     0.105083   
H8       H      0.253050000000     0.674910000000     0.103730000000     0.102076   
H9       H      0.378470000000     0.569420000000     0.155090000000     0.0445401  
H10      H      0.352880000000     0.650220000000     0.145180000000     0.0382093  
H11      H      0.269990000000     0.554230000000     0.159710000000     0.0382387  
H12      H      0.284620000000     0.538600000000     0.077980000000     0.0479893  
H13      H      0.553160000000     0.833480000000     0.112250000000     0.106406   
H14      H      0.639770000000     0.761110000000     0.030180000000     0.106005   
H15      H      0.694190000000     0.844960000000     0.096280000000     0.0441844  
H16      H      0.668220000000     0.849460000000     0.176900000000     0.0378527  
H17      H      0.613560000000     0.745030000000     0.167380000000     0.0443377  
H18      H      0.696550000000     0.737920000000     0.145970000000     0.0377193  
H19      H      0.501630000000     0.362450000000     0.961930000000     0.102513   
H20      H      0.593030000000     0.262980000000     0.031860000000     0.106228   
H21      H      0.522900000000     0.334340000000     0.099680000000     0.0475659  
H22      H      0.441840000000     0.344780000000     0.073820000000     0.0352803  
H23      H      0.467750000000     0.258920000000     0.986990000000     0.0398827  
H24      H      0.457370000000     0.234550000000     0.067110000000     0.041234   
H25      H      0.609950000000     0.068450000000     0.760140000000     0.104335   
H26      H      0.653390000000     0.010640000000     0.865320000000     0.102356   
H27      H      0.544680000000     0.939010000000     0.751360000000     0.0446646  
H28      H      0.625900000000     0.941870000000     0.777850000000     0.0395767  
H29      H      0.533400000000     0.942250000000     0.860370000000     0.0403215  
H30      H      0.518060000000     0.023400000000     0.836810000000     0.0454239  
H31      H      0.588700000000     0.101940000000     0.272600000000     0.105243   
H32      H      0.486910000000     0.007710000000     0.350000000000     0.104844   
H33      H      0.467410000000     0.149280000000     0.249740000000     0.0351209  
H34      H      0.451000000000     0.065210000000     0.257580000000     0.044464   
H35      H      0.439100000000     0.127910000000     0.358360000000     0.0350931  
H36      H      0.522610000000     0.147820000000     0.354870000000     0.045032   
H37      H      0.111530000000     0.564970000000     0.848480000000     0.105091   
H38      H      0.152690000000     0.616590000000     0.748630000000     0.102234   
H39      H      0.041770000000     0.691780000000     0.858830000000     0.043664   
H40      H      0.123240000000     0.692540000000     0.832250000000     0.0386115  
H41      H      0.037770000000     0.690190000000     0.746670000000     0.0387281  
H42      H      0.014640000000     0.611830000000     0.773520000000     0.0457202  
H43      H      0.098150000000     0.517750000000     0.342210000000     0.104989   
H44      H      0.997890000000     0.613980000000     0.262560000000     0.104977   
H45      H      0.974490000000     0.470530000000     0.358410000000     0.0369632  
H46      H      0.960850000000     0.555100000000     0.352150000000     0.0445112  
H47      H      0.953620000000     0.490730000000     0.249690000000     0.036461   
H48      H      0.037910000000     0.475980000000     0.255530000000     0.0447357  
H49      H      0.338170000000     0.036860000000     0.599440000000     0.105325   
H50      H      0.269970000000     0.148020000000     0.507980000000     0.103092   
H51      H      0.366840000000     0.157130000000     0.652780000000     0.0374569  
H52      H      0.364780000000     0.173310000000     0.569780000000     0.0434199  
H53      H      0.260100000000     0.191750000000     0.626800000000     0.0352458  
H54      H      0.257340000000     0.107880000000     0.644790000000     0.0464401  
H55      H      0.747290000000     0.955790000000     0.494420000000     0.102239   
H56      H      0.857140000000     0.005990000000     0.556410000000     0.106034   
H57      H      0.751360000000     0.071930000000     0.429750000000     0.0378908  
H58      H      0.776160000000     0.095160000000     0.507350000000     0.0488094  
H59      H      0.863200000000     0.066130000000     0.426410000000     0.0441977  
H60      H      0.839660000000     0.984130000000     0.434410000000     0.0385236  
H61      H      0.132160000000     0.886980000000     0.447490000000     0.102946   
H62      H      0.056860000000     0.783740000000     0.509350000000     0.107222   
H63      H      0.199560000000     0.876680000000     0.556770000000     0.0366371  
H64      H      0.121080000000     0.857590000000     0.585710000000     0.0479025  
H65      H      0.192130000000     0.763800000000     0.552560000000     0.0421724  
H66      H      0.183090000000     0.788660000000     0.472270000000     0.0396242  
H67      H      0.101380000000     0.356660000000     0.601080000000     0.104767   
H68      H      0.004230000000     0.288010000000     0.522430000000     0.105664   
H69      H      0.990870000000     0.376860000000     0.670640000000     0.0368196  
H70      H      0.959560000000     0.373940000000     0.591900000000     0.0444965  
H71      H      0.955330000000     0.267480000000     0.643710000000     0.0377592  
H72      H      0.040400000000     0.269670000000     0.656330000000     0.0431093  
N1       N      0.876500000000     0.555370000000     0.002830000000    -0.214159   
N2       N      0.751430000000     0.495470000000     0.025050000000    -0.2141     
N3       N      0.386570000000     0.606100000000     0.061970000000    -0.21425    
N4       N      0.239540000000     0.627070000000     0.098850000000    -0.214662   
N5       N      0.595030000000     0.860590000000     0.109660000000    -0.214014   
N6       N      0.632010000000     0.732970000000     0.070070000000    -0.214079   
N7       N      0.510720000000     0.374830000000     0.008670000000    -0.214972   
N8       N      0.552970000000     0.233270000000     0.034360000000    -0.214727   
N9       N      0.592070000000     0.027930000000     0.737440000000    -0.214262   
N10      N      0.606660000000     0.007430000000     0.882290000000    -0.21499    
N11      N      0.548640000000     0.090180000000     0.245660000000    -0.21422    
N12      N      0.500930000000     0.049940000000     0.372350000000    -0.213906   
N13      N      0.093060000000     0.604880000000     0.871770000000    -0.214922   
N14      N      0.106010000000     0.617880000000     0.731230000000    -0.215249   
N15      N      0.056950000000     0.526940000000     0.368430000000    -0.213667   
N16      N      0.010840000000     0.572490000000     0.238320000000    -0.213623   
N17      N      0.369870000000     0.075240000000     0.595340000000    -0.214251   
N18      N      0.245590000000     0.132650000000     0.548070000000    -0.21361    
N19      N      0.733210000000     0.003400000000     0.499850000000    -0.214341   
N20      N      0.879130000000     0.025080000000     0.516520000000    -0.214098   
N21      N      0.124940000000     0.899190000000     0.494590000000    -0.214463   
N22      N      0.098180000000     0.756510000000     0.515940000000    -0.21477    
N23      N      0.060210000000     0.384850000000     0.599160000000    -0.213876   
N24      N      0.010890000000     0.258590000000     0.561610000000    -0.214232   
O1       O      0.092580000000     0.976160000000     0.564180000000    -0.397553   
O2       O      0.032550000000     0.157910000000     0.597990000000    -0.398037   
O3       O      0.969760000000     0.037960000000     0.573600000000    -0.401894   
O4       O      0.153020000000     0.095440000000     0.590510000000    -0.404046   
O5       O      0.158050000000     0.113310000000     0.487260000000    -0.399092   
O6       O      0.971540000000     0.061440000000     0.471340000000    -0.398582   
O7       O      0.037840000000     0.178470000000     0.495180000000    -0.403881   
O8       O      0.091780000000     0.996460000000     0.461220000000    -0.403263   
O9       O      0.120270000000     0.543390000000     0.453490000000    -0.401839   
O10      O      0.144330000000     0.582270000000     0.638090000000    -0.404043   
O11      O      0.121620000000     0.468380000000     0.566890000000    -0.400043   
O12      O      0.141770000000     0.657000000000     0.526960000000    -0.399959   
O13      O      0.036000000000     0.669280000000     0.531970000000    -0.401991   
O14      O      0.017070000000     0.483340000000     0.581050000000    -0.401151   
O15      O      0.039730000000     0.600650000000     0.647580000000    -0.398966   
O16      O      0.014630000000     0.552460000000     0.464320000000    -0.398421   
O17      O      0.562920000000     0.980720000000     0.645070000000    -0.401174   
O18      O      0.520800000000     0.991560000000     0.459970000000    -0.401881   
O19      O      0.635100000000     0.968280000000     0.530450000000    -0.399069   
O20      O      0.449660000000     0.004750000000     0.573700000000    -0.400965   
O21      O      0.471850000000     0.109020000000     0.578550000000    -0.402523   
O22      O      0.654300000000     0.073180000000     0.527510000000    -0.400621   
O23      O      0.537160000000     0.096980000000     0.462350000000    -0.401131   
O24      O      0.587670000000     0.084440000000     0.646030000000    -0.39939    
O25      O      0.614890000000     0.072520000000     0.163180000000    -0.402625   
O26      O      0.643730000000     0.034500000000     0.978930000000    -0.401848   
O27      O      0.617960000000     0.147650000000     0.051070000000    -0.399161   
O28      O      0.639340000000     0.959000000000     0.092130000000    -0.397592   
O29      O      0.534420000000     0.944920000000     0.079640000000    -0.403216   
O30      O      0.513240000000     0.132080000000     0.038800000000    -0.404004   
O31      O      0.539130000000     0.018670000000     0.966050000000    -0.399121   
O32      O      0.509940000000     0.059030000000     0.150220000000    -0.401537   
O33      O      0.043200000000     0.528380000000     0.145340000000    -0.399835   
O34      O      0.091180000000     0.546720000000     0.961750000000    -0.40196    
O35      O      0.159370000000     0.556000000000     0.078290000000    -0.399822   
O36      O      0.976390000000     0.519780000000     0.027590000000    -0.400623   
O37      O      0.953310000000     0.623510000000     0.037160000000    -0.401868   
O38      O      0.138520000000     0.660650000000     0.078250000000    -0.401408   
O39      O      0.064590000000     0.649980000000     0.965350000000    -0.401326   
O40      O      0.026280000000     0.633550000000     0.151250000000    -0.40027    
O41      O      0.474910000000     0.592010000000     0.000620000000    -0.397936   
O42      O      0.659730000000     0.535020000000     0.981340000000    -0.398814   
O43      O      0.538410000000     0.473390000000     0.974250000000    -0.404101   
O44      O      0.597430000000     0.654230000000     0.005520000000    -0.403955   
O45      O      0.603190000000     0.634890000000     0.108530000000    -0.398016   
O46      O      0.541850000000     0.453190000000     0.077190000000    -0.399296   
O47      O      0.663800000000     0.514800000000     0.084260000000    -0.404545   
O48      O      0.481060000000     0.572220000000     0.103430000000    -0.404193   


