data_structure

_audit_creation_method RASPA-1.0
_audit_creation_date 2023-5-19
_audit_author_name 'Poobodin Mano'

_cell_length_a    21.4974
_cell_length_b    21.5776
_cell_length_c    20.6939
_cell_angle_alpha 89.997
_cell_angle_beta  89.997
_cell_angle_gamma 89.997
_cell_volume      9599.12

_symmetry_cell_setting          triclinic
_symmetry_space_group_name_Hall 'P 1'
_symmetry_space_group_name_H-M  'P 1'
_symmetry_Int_Tables_number     1

_symmetry_equiv_pos_as_xyz 'x,y,z'

loop_
_atom_site_label
_atom_site_type_symbol
_atom_site_fract_x
_atom_site_fract_y
_atom_site_fract_z
_atom_site_charge
C1       C      0.062660000000     0.081910000000     0.567150000000     0.443351   
C2       C      0.101030000000     0.263390000000     0.719490000000     0.443332   
C3       C      0.197720000000     0.145530000000     0.644180000000     0.443121   
C4       C      0.966530000000     0.198030000000     0.642190000000     0.44335    
C5       C      0.016770000000     0.723080000000     0.744910000000     0.442058   
C6       C      0.150140000000     0.634480000000     0.563470000000     0.443084   
C7       C      0.086800000000     0.783680000000     0.599390000000     0.443545   
C8       C      0.081040000000     0.572260000000     0.708610000000     0.442887   
C9       C      0.649240000000     0.062360000000     0.486860000000     0.443371   
C10      C      0.552280000000     0.021050000000     0.707290000000     0.442079   
C11      C      0.492020000000     0.046030000000     0.546160000000     0.442088   
C12      C      0.707520000000     0.038040000000     0.648560000000     0.441738   
C13      C      0.675300000000     0.132460000000     0.152890000000     0.44246    
C14      C      0.706170000000     0.924440000000     0.040590000000     0.442337   
C15      C      0.710220000000     0.978020000000     0.206110000000     0.443338   
C16      C      0.670580000000     0.080450000000     0.988160000000     0.442519   
C17      C      0.008900000000     0.624680000000     0.018420000000     0.443028   
C18      C      0.096810000000     0.613990000000     0.246860000000     0.442644   
C19      C      0.946580000000     0.586010000000     0.175030000000     0.443816   
C20      C      0.158130000000     0.653890000000     0.089640000000     0.443609   
C21      C      0.537930000000     0.393270000000     0.088920000000     0.443167   
C22      C      0.608380000000     0.618670000000     0.099670000000     0.441799   
C23      C      0.684830000000     0.471600000000     0.073010000000     0.442489   
C24      C      0.461580000000     0.539710000000     0.115320000000     0.443836   
C25      C      0.790590000000     0.446490000000     0.112750000000     0.0224961  
C26      C      0.820240000000     0.509470000000     0.127290000000    -0.108251   
C27      C      0.862880000000     0.507370000000     0.186510000000     0.0209707  
C28      C      0.261740000000     0.630360000000     0.042650000000     0.024029   
C29      C      0.305280000000     0.612690000000     0.098250000000    -0.111894   
C30      C      0.358300000000     0.571130000000     0.074400000000     0.0209588  
C31      C      0.667060000000     0.822080000000     0.002410000000     0.0230985  
C32      C      0.668460000000     0.776600000000     0.059320000000    -0.111749   
C33      C      0.625140000000     0.721090000000     0.047940000000     0.0202787  
C34      C      0.528100000000     0.289220000000     0.138810000000     0.0218538  
C35      C      0.592570000000     0.259420000000     0.133880000000    -0.108023   
C36      C      0.606870000000     0.217360000000     0.191600000000     0.0212552  
C37      C      0.529750000000     0.056070000000     0.818670000000     0.021714   
C38      C      0.593860000000     0.058040000000     0.851140000000    -0.107889   
C39      C      0.599250000000     0.111480000000     0.899400000000     0.022068   
C40      C      0.700740000000     0.023980000000     0.387450000000     0.0259093  
C41      C      0.648480000000     0.994240000000     0.347460000000    -0.10576    
C42      C      0.671090000000     0.936820000000     0.310360000000     0.0223975  
C43      C      0.967210000000     0.684120000000     0.925210000000     0.0266849  
C44      C      0.024190000000     0.719280000000     0.899560000000    -0.108054   
C45      C      0.006260000000     0.771740000000     0.853110000000     0.0223411  
C46      C      0.160310000000     0.599920000000     0.449920000000     0.0235186  
C47      C      0.162060000000     0.658770000000     0.407870000000    -0.107617   
C48      C      0.111700000000     0.660050000000     0.355280000000     0.0197139  
C49      C      0.302030000000     0.144070000000     0.591760000000     0.0199855  
C50      C      0.350260000000     0.092020000000     0.584490000000    -0.110735   
C51      C      0.392100000000     0.100600000000     0.525240000000     0.0216693  
C52      C      0.860060000000     0.183910000000     0.685890000000     0.0232622  
C53      C      0.834600000000     0.123120000000     0.658080000000    -0.108648   
C54      C      0.793690000000     0.089440000000     0.707510000000     0.0237528  
C55      C      0.044880000000     0.856790000000     0.518780000000     0.021023   
C56      C      0.054970000000     0.923630000000     0.495930000000    -0.112314   
C57      C      0.038750000000     0.971110000000     0.548500000000     0.0228862  
C58      C      0.109600000000     0.376710000000     0.739130000000     0.0229375  
C59      C      0.046150000000     0.406390000000     0.753780000000    -0.10946    
C60      C      0.035700000000     0.467680000000     0.717720000000     0.0200038  
H1       H      0.768810000000     0.426730000000     0.156970000000     0.0351637  
H2       H      0.827170000000     0.413540000000     0.096550000000     0.0238708  
H3       H      0.859810000000     0.603450000000     0.214400000000     0.102059   
H4       H      0.847440000000     0.524750000000     0.084420000000     0.0600746  
H5       H      0.782980000000     0.544240000000     0.136170000000     0.0633494  
H6       H      0.899740000000     0.471740000000     0.179950000000     0.0375375  
H7       H      0.835260000000     0.494310000000     0.229840000000     0.0258829  
H8       H      0.759530000000     0.450180000000     0.013520000000     0.101622   
H9       H      0.240540000000     0.588120000000     0.021050000000     0.0355342  
H10      H      0.288810000000     0.653830000000     0.003950000000     0.0224748  
H11      H      0.385990000000     0.557400000000     0.174540000000     0.101781   
H12      H      0.325240000000     0.655580000000     0.119710000000     0.0575077  
H13      H      0.278380000000     0.587940000000     0.136210000000     0.0622197  
H14      H      0.382790000000     0.595230000000     0.034200000000     0.0365695  
H15      H      0.338970000000     0.526800000000     0.055790000000     0.0304234  
H16      H      0.223740000000     0.720330000000     0.065200000000     0.100704   
H17      H      0.620260000000     0.843730000000     0.998190000000     0.0351411  
H18      H      0.676140000000     0.796650000000     0.956640000000     0.0230227  
H19      H      0.637070000000     0.696840000000     0.149100000000     0.101256   
H20      H      0.716750000000     0.759220000000     0.066110000000     0.058088   
H21      H      0.654160000000     0.801440000000     0.104010000000     0.0609858  
H22      H      0.640410000000     0.696350000000     0.003490000000     0.0361047  
H23      H      0.576680000000     0.737720000000     0.040800000000     0.0294787  
H24      H      0.760390000000     0.857930000000     0.995340000000     0.101113   
H25      H      0.522280000000     0.312780000000     0.186250000000     0.0365608  
H26      H      0.491840000000     0.252630000000     0.135440000000     0.0242028  
H27      H      0.707130000000     0.215190000000     0.191510000000     0.101422   
H28      H      0.595010000000     0.231860000000     0.088510000000     0.0610047  
H29      H      0.628580000000     0.296380000000     0.131400000000     0.0623047  
H30      H      0.569750000000     0.181920000000     0.197650000000     0.0362343  
H31      H      0.608230000000     0.245600000000     0.236510000000     0.0247551  
H32      H      0.505420000000     0.315350000000     0.040920000000     0.101623   
H33      H      0.517280000000     0.102340000000     0.798780000000     0.0358428  
H34      H      0.493870000000     0.043610000000     0.855130000000     0.023755   
H35      H      0.698000000000     0.128710000000     0.906260000000     0.101024   
H36      H      0.602040000000     0.013330000000     0.876520000000     0.0615029  
H37      H      0.630570000000     0.063670000000     0.813690000000     0.0624249  
H38      H      0.561000000000     0.109210000000     0.935540000000     0.0354694  
H39      H      0.594610000000     0.156270000000     0.873290000000     0.0243283  
H40      H      0.521010000000     0.963370000000     0.780580000000     0.101774   
H41      H      0.736200000000     0.044030000000     0.354410000000     0.0271317  
H42      H      0.724530000000     0.988370000000     0.417520000000     0.0347694  
H43      H      0.766810000000     0.950230000000     0.281870000000     0.100551   
H44      H      0.610010000000     0.979780000000     0.380020000000     0.0620795  
H45      H      0.629510000000     0.028940000000     0.312970000000     0.063026   
H46      H      0.631350000000     0.915460000000     0.284110000000     0.0346007  
H47      H      0.688500000000     0.901560000000     0.345120000000     0.0238952  
H48      H      0.680700000000     0.119230000000     0.412750000000     0.101952   
H49      H      0.935660000000     0.671690000000     0.884690000000     0.0266749  
H50      H      0.940400000000     0.713850000000     0.959180000000     0.0339807  
H51      H      0.932380000000     0.744540000000     0.788150000000     0.100777   
H52      H      0.050000000000     0.739390000000     0.941110000000     0.0596535  
H53      H      0.056070000000     0.686540000000     0.874530000000     0.0674418  
H54      H      0.047880000000     0.800680000000     0.842720000000     0.0347285  
H55      H      0.971260000000     0.802450000000     0.876350000000     0.0231016  
H56      H      0.990030000000     0.586970000000     0.928500000000     0.10226    
H57      H      0.188890000000     0.563170000000     0.426810000000     0.0231248  
H58      H      0.112160000000     0.581390000000     0.454030000000     0.0388756  
H59      H      0.137920000000     0.567680000000     0.322970000000     0.101326   
H60      H      0.154720000000     0.700230000000     0.438930000000     0.0569295  
H61      H      0.208760000000     0.663450000000     0.385300000000     0.0538259  
H62      H      0.114270000000     0.706040000000     0.331130000000     0.0366068  
H63      H      0.064930000000     0.655840000000     0.377790000000     0.0317683  
H64      H      0.234230000000     0.613650000000     0.519230000000     0.10166    
H65      H      0.276590000000     0.149570000000     0.545280000000     0.0362283  
H66      H      0.325820000000     0.188400000000     0.603440000000     0.0302992  
H67      H      0.416200000000     0.006630000000     0.499990000000     0.100532   
H68      H      0.379670000000     0.090240000000     0.628690000000     0.060308   
H69      H      0.325440000000     0.046970000000     0.579960000000     0.057525   
H70      H      0.418360000000     0.144880000000     0.528820000000     0.037031   
H71      H      0.362910000000     0.102970000000     0.480960000000     0.0237675  
H72      H      0.274800000000     0.101910000000     0.682630000000     0.102071   
H73      H      0.881930000000     0.175810000000     0.733910000000     0.0354417  
H74      H      0.820960000000     0.216880000000     0.693380000000     0.0235666  
H75      H      0.787360000000     0.992960000000     0.679960000000     0.102315   
H76      H      0.806980000000     0.133610000000     0.613980000000     0.0639659  
H77      H      0.873840000000     0.092270000000     0.644210000000     0.0635526  
H78      H      0.758050000000     0.121480000000     0.727690000000     0.0335441  
H79      H      0.823060000000     0.073690000000     0.748580000000     0.0239866  
H80      H      0.887860000000     0.241100000000     0.605130000000     0.101688   
H81      H      0.050410000000     0.825350000000     0.476580000000     0.0291455  
H82      H      0.996630000000     0.851570000000     0.537490000000     0.034849   
H83      H      0.051920000000     0.043230000000     0.476440000000     0.10089    
H84      H      0.104200000000     0.929680000000     0.480610000000     0.055073   
H85      H      0.024930000000     0.932080000000     0.453090000000     0.049522   
H86      H      0.066040000000     0.960700000000     0.592850000000     0.0403294  
H87      H      0.988420000000     0.967970000000     0.560410000000     0.0302714  
H88      H      0.128000000000     0.867850000000     0.578390000000     0.102565   
H89      H      0.146700000000     0.401770000000     0.765800000000     0.025948   
H90      H      0.120630000000     0.380440000000     0.686770000000     0.0412825  
H91      H      0.113400000000     0.506180000000     0.772770000000     0.101648   
H92      H      0.008620000000     0.373870000000     0.738940000000     0.0562669  
H93      H      0.041600000000     0.414120000000     0.806700000000     0.0528131  
H94      H      0.987830000000     0.484280000000     0.728480000000     0.0327897  
H95      H      0.039030000000     0.459320000000     0.664770000000     0.0355082  
H96      H      0.108440000000     0.303550000000     0.810150000000     0.101362   
N1       N      0.889590000000     0.568980000000     0.196890000000    -0.225175   
N2       N      0.744270000000     0.453510000000     0.061380000000    -0.225691   
N3       N      0.402120000000     0.557650000000     0.126830000000    -0.225187   
N4       N      0.213620000000     0.672930000000     0.065580000000    -0.226332   
N5       N      0.626580000000     0.678820000000     0.103430000000    -0.224827   
N6       N      0.715390000000     0.869270000000     0.010500000000    -0.225349   
N7       N      0.667710000000     0.188230000000     0.182150000000    -0.225573   
N8       N      0.519730000000     0.333110000000     0.085530000000    -0.225225   
N9       N      0.660200000000     0.109540000000     0.931010000000    -0.225607   
N10      N      0.529960000000     0.009310000000     0.767410000000    -0.225757   
N11      N      0.720970000000     0.952980000000     0.265180000000    -0.225487   
N12      N      0.676330000000     0.073470000000     0.428760000000    -0.226307   
N13      N      0.980760000000     0.746820000000     0.792790000000    -0.224531   
N14      N      0.987040000000     0.626900000000     0.956990000000    -0.226263   
N15      N      0.119980000000     0.610280000000     0.307750000000    -0.224617   
N16      N      0.185840000000     0.613320000000     0.514070000000    -0.225628   
N17      N      0.434290000000     0.047500000000     0.519630000000    -0.225154   
N18      N      0.258490000000     0.128520000000     0.643870000000    -0.224621   
N19      N      0.763860000000     0.035350000000     0.678040000000    -0.226245   
N20      N      0.904900000000     0.211690000000     0.641190000000    -0.225973   
N21      N      0.052730000000     0.033970000000     0.526080000000    -0.226192   
N22      N      0.089930000000     0.839090000000     0.568730000000    -0.22563    
N23      N      0.080500000000     0.515530000000     0.736840000000    -0.224971   
N24      N      0.109240000000     0.311920000000     0.760370000000    -0.225247   
Ni1      Ni     0.090020000000     0.205610000000     0.597940000000     1.00212    
Ni2      Ni     0.074450000000     0.139270000000     0.688830000000     1.00744    
Ni3      Ni     0.129450000000     0.690930000000     0.684150000000     1.00209    
Ni4      Ni     0.037660000000     0.665620000000     0.624830000000     1.00769    
Ni5      Ni     0.602410000000     0.987530000000     0.586770000000     1.00468    
Ni6      Ni     0.597660000000     0.096340000000     0.606850000000     1.00188    
Ni7      Ni     0.636300000000     0.017930000000     0.101890000000     0.997328   
Ni8      Ni     0.744820000000     0.039010000000     0.091650000000     1.0068     
Ni9      Ni     0.066490000000     0.566680000000     0.124100000000     1.00394    
Ni10     Ni     0.038750000000     0.672540000000     0.141320000000     1.00438    
Ni11     Ni     0.564790000000     0.510890000000     0.037440000000     1.00324    
Ni12     Ni     0.581720000000     0.500880000000     0.150960000000     1.00441    
O1       O      0.074490000000     0.135530000000     0.543720000000    -0.456705   
O2       O      0.103880000000     0.271680000000     0.658190000000    -0.453967   
O3       O      0.176610000000     0.183120000000     0.601410000000    -0.451204   
O4       O      0.002520000000     0.222930000000     0.600210000000    -0.454893   
O5       O      0.988050000000     0.160580000000     0.684760000000    -0.456273   
O6       O      0.161730000000     0.122290000000     0.687100000000    -0.456609   
O7       O      0.089690000000     0.209670000000     0.743040000000    -0.455667   
O8       O      0.060460000000     0.073260000000     0.628450000000    -0.455041   
O9       O      0.076230000000     0.724530000000     0.749780000000    -0.454056   
O10      O      0.176530000000     0.655550000000     0.614470000000    -0.454026   
O11      O      0.129160000000     0.769240000000     0.640270000000    -0.455244   
O12      O      0.123730000000     0.610940000000     0.723980000000    -0.455711   
O13      O      0.039390000000     0.586400000000     0.666740000000    -0.454862   
O14      O      0.042340000000     0.746120000000     0.586480000000    -0.456345   
O15      O      0.090740000000     0.634420000000     0.558150000000    -0.456083   
O16      O      0.990500000000     0.699220000000     0.695230000000    -0.455267   
O17      O      0.640690000000     0.006450000000     0.505700000000    -0.457182   
O18      O      0.563950000000     0.975550000000     0.669440000000    -0.455268   
O19      O      0.521880000000     0.994620000000     0.547450000000    -0.455053   
O20      O      0.682760000000     0.987980000000     0.627320000000    -0.453924   
O21      O      0.679290000000     0.090100000000     0.643210000000    -0.456352   
O22      O      0.515920000000     0.095470000000     0.569870000000    -0.454334   
O23      O      0.563270000000     0.076990000000     0.689800000000    -0.455629   
O24      O      0.633020000000     0.108200000000     0.522490000000    -0.454926   
O25      O      0.628090000000     0.097680000000     0.141920000000    -0.45448    
O26      O      0.651850000000     0.939560000000     0.060860000000    -0.452805   
O27      O      0.654480000000     0.981980000000     0.184450000000    -0.455127   
O28      O      0.625190000000     0.055780000000     0.019000000000    -0.455353   
O29      O      0.726000000000     0.078590000000     0.010910000000    -0.455156   
O30      O      0.756280000000     0.998360000000     0.173090000000    -0.455988   
O31      O      0.752550000000     0.960970000000     0.048230000000    -0.455732   
O32      O      0.730050000000     0.115540000000     0.136040000000    -0.456111   
O33      O      0.032460000000     0.573960000000     0.039110000000    -0.458108   
O34      O      0.098930000000     0.566060000000     0.210400000000    -0.456393   
O35      O      0.985600000000     0.544860000000     0.156110000000    -0.453287   
O36      O      0.145150000000     0.595930000000     0.092580000000    -0.454353   
O37      O      0.118980000000     0.694700000000     0.108660000000    -0.458252   
O38      O      0.960360000000     0.643700000000     0.173210000000    -0.456708   
O39      O      0.072810000000     0.664810000000     0.226560000000    -0.453869   
O40      O      0.006620000000     0.672920000000     0.054640000000    -0.453997   
O41      O      0.537730000000     0.426210000000     0.037430000000    -0.454695   
O42      O      0.592570000000     0.595200000000     0.045120000000    -0.452885   
O43      O      0.649040000000     0.483960000000     0.025210000000    -0.455221   
O44      O      0.481780000000     0.536680000000     0.057120000000    -0.455173   
O45      O      0.496890000000     0.525970000000     0.163100000000    -0.455022   
O46      O      0.665270000000     0.476560000000     0.131310000000    -0.456327   
O47      O      0.607000000000     0.586040000000     0.151360000000    -0.456216   
O48      O      0.555590000000     0.416290000000     0.143020000000    -0.455      


