data_structure

_audit_creation_method RASPA-1.0
_audit_creation_date 2023-5-19
_audit_author_name 'Poobodin Mano'

_cell_length_a    26.3864
_cell_length_b    26.2393
_cell_length_c    25.8829
_cell_angle_alpha 89.997
_cell_angle_beta  89.997
_cell_angle_gamma 89.997
_cell_volume      17920.3

_symmetry_cell_setting          triclinic
_symmetry_space_group_name_Hall 'P 1'
_symmetry_space_group_name_H-M  'P 1'
_symmetry_Int_Tables_number     1

_symmetry_equiv_pos_as_xyz 'x,y,z'

loop_
_atom_site_label
_atom_site_type_symbol
_atom_site_fract_x
_atom_site_fract_y
_atom_site_fract_z
_atom_site_charge
C1       C      0.984940000000     0.948500000000     0.590720000000     0.442906   
C2       C      0.989840000000     0.140640000000     0.562460000000     0.441925   
C3       C      0.082460000000     0.045650000000     0.598960000000     0.443077   
C4       C      0.894420000000     0.043690000000     0.554590000000     0.443322   
C5       C      0.008630000000     0.536580000000     0.640140000000     0.443004   
C6       C      0.026730000000     0.552940000000     0.444900000000     0.442702   
C7       C      0.005260000000     0.640530000000     0.548560000000     0.442604   
C8       C      0.031160000000     0.448490000000     0.535820000000     0.442377   
C9       C      0.486710000000     0.033080000000     0.443960000000     0.442022   
C10      C      0.514820000000     0.038690000000     0.638750000000     0.441814   
C11      C      0.408160000000     0.061280000000     0.555170000000     0.443156   
C12      C      0.592670000000     0.011300000000     0.527210000000     0.44268    
C13      C      0.540450000000     0.122280000000     0.015980000000     0.442275   
C14      C      0.521110000000     0.936250000000     0.068930000000     0.441989   
C15      C      0.529130000000     0.056860000000     0.137450000000     0.441549   
C16      C      0.531470000000     0.002650000000     0.948320000000     0.441196   
C17      C      0.061210000000     0.550310000000     0.954360000000     0.442571   
C18      C      0.095730000000     0.562040000000     0.147670000000     0.4427     
C19      C      0.984400000000     0.537580000000     0.069160000000     0.441855   
C20      C      0.170560000000     0.575380000000     0.032480000000     0.442182   
C21      C      0.576040000000     0.424310000000     0.051430000000     0.442379   
C22      C      0.594240000000     0.617360000000     0.040620000000     0.442133   
C23      C      0.495110000000     0.528320000000     0.013440000000     0.440736   
C24      C      0.676660000000     0.512940000000     0.079190000000     0.441571   
C25      C      0.860610000000     0.473600000000     0.056800000000    -0.0797703  
C26      C      0.817890000000     0.494920000000     0.091050000000    -0.0798895  
C27      C      0.766720000000     0.493120000000     0.062740000000     0.00949722 
C28      C      0.913050000000     0.476870000000     0.082580000000     0.00938324 
C29      C      0.353600000000     0.535330000000     0.004310000000    -0.0821904  
C30      C      0.310050000000     0.564090000000     0.030770000000    -0.0796989  
C31      C      0.258120000000     0.547940000000     0.009480000000     0.0086806  
C32      C      0.404900000000     0.549190000000     0.028630000000     0.00974589 
C33      C      0.542930000000     0.795270000000     0.084030000000    -0.0816915  
C34      C      0.583640000000     0.758700000000     0.063190000000    -0.0808141  
C35      C      0.568880000000     0.702610000000     0.071730000000     0.00977577 
C36      C      0.559540000000     0.851190000000     0.078650000000     0.00999355 
C37      C      0.592630000000     0.250380000000     0.977110000000    -0.079595   
C38      C      0.579460000000     0.283780000000     0.024000000000    -0.0799719  
C39      C      0.579560000000     0.340330000000     0.009050000000     0.00870049 
C40      C      0.595880000000     0.193660000000     0.991040000000     0.0114206  
C41      C      0.508710000000     0.010150000000     0.780290000000    -0.0808217  
C42      C      0.494820000000     0.963410000000     0.813180000000    -0.0790782  
C43      C      0.484870000000     0.977270000000     0.869920000000     0.0105372  
C44      C      0.515780000000     0.995160000000     0.723420000000     0.0104069  
C45      C      0.489520000000     0.108890000000     0.267220000000    -0.0790278  
C46      C      0.485680000000     0.061230000000     0.301450000000    -0.0803003  
C47      C      0.488190000000     0.075570000000     0.358900000000     0.0102092  
C48      C      0.482940000000     0.096500000000     0.209640000000     0.00967568 
C49      C      0.031030000000     0.520690000000     0.782700000000    -0.080044   
C50      C      0.077330000000     0.510840000000     0.817210000000    -0.0801344  
C51      C      0.062460000000     0.500130000000     0.873540000000     0.010055   
C52      C      0.047240000000     0.531050000000     0.726740000000     0.0101974  
C53      C      0.117420000000     0.605660000000     0.284500000000    -0.0792072  
C54      C      0.069670000000     0.583780000000     0.310130000000    -0.0800494  
C55      C      0.078070000000     0.573970000000     0.367940000000     0.010358   
C56      C      0.110070000000     0.613650000000     0.226210000000     0.0101921  
C57      C      0.224130000000     0.036760000000     0.593650000000    -0.0819212  
C58      C      0.267480000000     0.058030000000     0.560460000000    -0.0800187  
C59      C      0.319570000000     0.040400000000     0.580230000000     0.00954946 
C60      C      0.172150000000     0.052120000000     0.571780000000     0.0102531  
C61      C      0.771150000000     0.053880000000     0.483700000000    -0.0802786  
C62      C      0.733040000000     0.015100000000     0.505380000000    -0.0802322  
C63      C      0.679030000000     0.036160000000     0.501850000000     0.00981712 
C64      C      0.826170000000     0.036150000000     0.489850000000     0.0102359  
C65      C      0.956780000000     0.772510000000     0.525750000000    -0.0801461  
C66      C      0.968220000000     0.807400000000     0.572000000000    -0.0800485  
C67      C      0.980110000000     0.861890000000     0.554110000000     0.01038    
C68      C      0.950100000000     0.716580000000     0.541930000000     0.0103993  
C69      C      0.016210000000     0.306510000000     0.521870000000    -0.0799356  
C70      C      0.975600000000     0.269730000000     0.501460000000    -0.0803868  
C71      C      0.993310000000     0.213940000000     0.502760000000     0.0106119  
C72      C      0.997550000000     0.361940000000     0.520140000000     0.0100726  
H1       H      0.937980000000     0.448470000000     0.063300000000     0.0386755  
H2       H      0.910640000000     0.466380000000     0.124120000000     0.0294592  
H3       H      0.768070000000     0.519650000000     0.029220000000     0.0376937  
H4       H      0.759920000000     0.453850000000     0.048070000000     0.0328685  
H5       H      0.826130000000     0.535020000000     0.101990000000     0.0463557  
H6       H      0.815470000000     0.471730000000     0.126930000000     0.0440544  
H7       H      0.730800000000     0.508840000000     0.136950000000     0.100331   
H8       H      0.852340000000     0.432830000000     0.048560000000     0.0404639  
H9       H      0.861580000000     0.494080000000     0.019170000000     0.0476341  
H10      H      0.910330000000     0.559530000000     0.082530000000     0.10097    
H11      H      0.407560000000     0.530410000000     0.067090000000     0.0389692  
H12      H      0.407470000000     0.591130000000     0.034340000000     0.0299125  
H13      H      0.259840000000     0.543980000000     0.966740000000     0.0291847  
H14      H      0.248080000000     0.510190000000     0.026150000000     0.0396161  
H15      H      0.315770000000     0.605610000000     0.024270000000     0.0439148  
H16      H      0.310840000000     0.556970000000     0.073140000000     0.0461001  
H17      H      0.229280000000     0.624760000000     0.016530000000     0.0999526  
H18      H      0.347600000000     0.493500000000     0.007650000000     0.0459183  
H19      H      0.353770000000     0.545640000000     0.962620000000     0.0443798  
H20      H      0.441680000000     0.532840000000     0.955370000000     0.100037   
H21      H      0.579570000000     0.856430000000     0.041150000000     0.0358947  
H22      H      0.586340000000     0.860830000000     0.110340000000     0.0349937  
H23      H      0.577470000000     0.692010000000     0.112410000000     0.0381475  
H24      H      0.527490000000     0.697560000000     0.065230000000     0.0311583  
H25      H      0.620570000000     0.766190000000     0.082470000000     0.045403   
H26      H      0.588240000000     0.766230000000     0.021150000000     0.0447044  
H27      H      0.609830000000     0.683800000000     0.001250000000     0.100324   
H28      H      0.507450000000     0.789020000000     0.061670000000     0.0449917  
H29      H      0.535070000000     0.786920000000     0.125390000000     0.043999   
H30      H      0.479590000000     0.871610000000     0.086790000000     0.0998702  
H31      H      0.620630000000     0.188550000000     0.025460000000     0.0357972  
H32      H      0.613720000000     0.173170000000     0.958110000000     0.0327446  
H33      H      0.617040000000     0.350090000000     0.991950000000     0.037709   
H34      H      0.549660000000     0.347350000000     0.979590000000     0.0338431  
H35      H      0.607900000000     0.277480000000     0.055080000000     0.0466967  
H36      H      0.541410000000     0.273260000000     0.039050000000     0.0471357  
H37      H      0.555840000000     0.357040000000     0.088040000000     0.100377   
H38      H      0.564150000000     0.255990000000     0.945930000000     0.0438561  
H39      H      0.630150000000     0.262300000000     0.961670000000     0.0405156  
H40      H      0.513080000000     0.192570000000     0.992560000000     0.100728   
H41      H      0.481860000000     0.973360000000     0.710540000000     0.0383656  
H42      H      0.549680000000     0.970280000000     0.719530000000     0.032006   
H43      H      0.459170000000     0.010820000000     0.872110000000     0.0363254  
H44      H      0.465300000000     0.944550000000     0.888590000000     0.0326623  
H45      H      0.525330000000     0.934240000000     0.810810000000     0.043654   
H46      H      0.459630000000     0.946030000000     0.797380000000     0.0405659  
H47      H      0.566910000000     0.979610000000     0.880850000000     0.100427   
H48      H      0.477820000000     0.038880000000     0.783070000000     0.0476913  
H49      H      0.544320000000     0.027560000000     0.795000000000     0.0473771  
H50      H      0.535740000000     0.074110000000     0.707090000000     0.100583   
H51      H      0.474810000000     0.132680000000     0.188840000000     0.0319221  
H52      H      0.449760000000     0.070860000000     0.204200000000     0.0374909  
H53      H      0.525870000000     0.092810000000     0.367150000000     0.0359495  
H54      H      0.458300000000     0.104150000000     0.367810000000     0.0336151  
H55      H      0.517150000000     0.034580000000     0.292140000000     0.049032   
H56      H      0.449060000000     0.041620000000     0.293770000000     0.0457515  
H57      H      0.468750000000     0.996410000000     0.375520000000     0.101119   
H58      H      0.458960000000     0.135940000000     0.278410000000     0.040181   
H59      H      0.526400000000     0.128420000000     0.273650000000     0.0432785  
H60      H      0.562920000000     0.075170000000     0.207290000000     0.100025   
H61      H      0.073790000000     0.500640000000     0.713830000000     0.0356297  
H62      H      0.067180000000     0.568350000000     0.724760000000     0.0349573  
H63      H      0.027810000000     0.476100000000     0.875580000000     0.0310447  
H64      H      0.094040000000     0.478100000000     0.891250000000     0.0379273  
H65      H      0.103840000000     0.543770000000     0.815560000000     0.0466667  
H66      H      0.097860000000     0.476920000000     0.802110000000     0.040949   
H67      H      0.041700000000     0.580050000000     0.882900000000     0.100811   
H68      H      0.006030000000     0.486560000000     0.783590000000     0.0451667  
H69      H      0.009250000000     0.553930000000     0.797400000000     0.0457168  
H70      H      0.966840000000     0.527610000000     0.707220000000     0.100666   
H71      H      0.142850000000     0.635740000000     0.211150000000     0.0317764  
H72      H      0.075080000000     0.636320000000     0.219240000000     0.0368873  
H73      H      0.106640000000     0.543200000000     0.372970000000     0.0342904  
H74      H      0.092600000000     0.609360000000     0.386460000000     0.0351544  
H75      H      0.058800000000     0.547320000000     0.291250000000     0.0488305  
H76      H      0.037990000000     0.611340000000     0.305240000000     0.0463282  
H77      H      0.997850000000     0.554260000000     0.370690000000     0.100682   
H78      H      0.126400000000     0.643120000000     0.302390000000     0.0403422  
H79      H      0.150300000000     0.579940000000     0.291210000000     0.0433871  
H80      H      0.119100000000     0.531570000000     0.217280000000     0.10044    
H81      H      0.163570000000     0.027420000000     0.537950000000     0.0385146  
H82      H      0.173020000000     0.092420000000     0.558480000000     0.0304953  
H83      H      0.319990000000     0.039330000000     0.623180000000     0.0292102  
H84      H      0.326720000000     0.001130000000     0.565770000000     0.0392611  
H85      H      0.265220000000     0.100360000000     0.561520000000     0.0444406  
H86      H      0.262860000000     0.045650000000     0.519630000000     0.045673   
H87      H      0.351600000000     0.114660000000     0.564080000000     0.10025    
H88      H      0.226540000000     0.994480000000     0.595500000000     0.0463168  
H89      H      0.228420000000     0.052040000000     0.633500000000     0.0443782  
H90      H      0.142080000000     0.052900000000     0.649920000000     0.100493   
H91      H      0.849800000000     0.059010000000     0.462790000000     0.0363493  
H92      H      0.830010000000     0.995360000000     0.478890000000     0.031983   
H93      H      0.676260000000     0.070480000000     0.526980000000     0.0386331  
H94      H      0.670790000000     0.047650000000     0.461330000000     0.0314774  
H95      H      0.741770000000     0.006430000000     0.546460000000     0.0476522  
H96      H      0.735720000000     0.979170000000     0.482720000000     0.0444015  
H97      H      0.650810000000     0.959390000000     0.516290000000     0.100496   
H98      H      0.763360000000     0.059280000000     0.441820000000     0.0401223  
H99      H      0.766320000000     0.091490000000     0.502960000000     0.0458771  
H100     H      0.818250000000     0.047310000000     0.573080000000     0.101142   
H101     H      0.929340000000     0.696740000000     0.510360000000     0.0367665  
H102     H      0.926870000000     0.713710000000     0.577650000000     0.0323581  
H103     H      0.017760000000     0.862530000000     0.534790000000     0.0349179  
H104     H      0.950870000000     0.874320000000     0.525780000000     0.0346632  
H105     H      0.001060000000     0.792630000000     0.594340000000     0.04632    
H106     H      0.934530000000     0.807920000000     0.597850000000     0.0453381  
H107     H      0.972840000000     0.884030000000     0.635050000000     0.101029   
H108     H      0.921070000000     0.785640000000     0.507180000000     0.0407571  
H109     H      0.987500000000     0.775350000000     0.496430000000     0.0458407  
H110     H      0.031210000000     0.714270000000     0.557630000000     0.100742   
H111     H      0.966420000000     0.366870000000     0.548700000000     0.0364435  
H112     H      0.982580000000     0.370670000000     0.480940000000     0.0335921  
H113     H      0.969170000000     0.192130000000     0.475300000000     0.0355262  
H114     H      0.033240000000     0.210690000000     0.489380000000     0.0325256  
H115     H      0.966980000000     0.279900000000     0.460660000000     0.0406419  
H116     H      0.939960000000     0.273890000000     0.524030000000     0.0455736  
H117     H      0.982820000000     0.215620000000     0.586440000000     0.100795   
H118     H      0.026310000000     0.296530000000     0.562330000000     0.0468356  
H119     H      0.050760000000     0.302830000000     0.497510000000     0.044575   
H120     H      0.076060000000     0.383970000000     0.533820000000     0.10034    
N1       N      0.724740000000     0.507340000000     0.097030000000    -0.223084   
N2       N      0.934430000000     0.528270000000     0.077580000000    -0.222681   
N3       N      0.219730000000     0.586430000000     0.021940000000    -0.223309   
N4       N      0.447080000000     0.533330000000     0.995410000000    -0.222825   
N5       N      0.596010000000     0.668830000000     0.035970000000    -0.223223   
N6       N      0.516000000000     0.886010000000     0.080200000000    -0.223444   
N7       N      0.570140000000     0.373010000000     0.053980000000    -0.223672   
N8       N      0.545740000000     0.171460000000     0.000770000000    -0.223954   
N9       N      0.531970000000     0.987600000000     0.898170000000    -0.222807   
N10      N      0.522260000000     0.040300000000     0.690630000000    -0.223624   
N11      N      0.480600000000     0.030840000000     0.391960000000    -0.223986   
N12      N      0.528600000000     0.073490000000     0.187120000000    -0.22272    
N13      N      0.054330000000     0.547560000000     0.902470000000    -0.223143   
N14      N      0.003360000000     0.531850000000     0.692030000000    -0.223923   
N15      N      0.030590000000     0.558960000000     0.393030000000    -0.224082   
N16      N      0.107320000000     0.564920000000     0.198620000000    -0.22332    
N17      N      0.359390000000     0.075570000000     0.563200000000    -0.223546   
N18      N      0.132430000000     0.047350000000     0.611120000000    -0.223611   
N19      N      0.641510000000     0.998120000000     0.517900000000    -0.223429   
N20      N      0.844340000000     0.043640000000     0.542890000000    -0.223768   
N21      N      0.980250000000     0.897500000000     0.597750000000    -0.22375    
N22      N      0.999280000000     0.691840000000     0.550090000000    -0.22327    
N23      N      0.988370000000     0.191750000000     0.554560000000    -0.223191   
N24      N      0.038810000000     0.397520000000     0.531810000000    -0.223729   
Ni1      Ni     0.998440000000     0.038020000000     0.532340000000     1.00448    
Ni2      Ni     0.978330000000     0.051070000000     0.621310000000     1.00457    
Ni3      Ni     0.062560000000     0.550280000000     0.547400000000     1.00497    
Ni4      Ni     0.973310000000     0.538670000000     0.537640000000     1.00361    
Ni5      Ni     0.489140000000     0.992110000000     0.544450000000     1.00071    
Ni6      Ni     0.511720000000     0.080010000000     0.538310000000     1.00821    
Ni7      Ni     0.485530000000     0.033740000000     0.041260000000     1.00247    
Ni8      Ni     0.575530000000     0.025160000000     0.044690000000     1.00167    
Ni9      Ni     0.086820000000     0.511730000000     0.052220000000     1.00146    
Ni10     Ni     0.068460000000     0.600780000000     0.050120000000     1.00413    
Ni11     Ni     0.570940000000     0.524660000000     0.089720000000     0.998881   
Ni12     Ni     0.600740000000     0.516900000000     0.003000000000     1.00604    
O1       O      0.995730000000     0.966240000000     0.545860000000    -0.454325   
O2       O      0.998870000000     0.110570000000     0.524520000000    -0.455282   
O3       O      0.068550000000     0.039680000000     0.551870000000    -0.454897   
O4       O      0.927270000000     0.037520000000     0.518680000000    -0.457039   
O5       O      0.908220000000     0.050230000000     0.601600000000    -0.455339   
O6       O      0.049650000000     0.050800000000     0.635060000000    -0.45592    
O7       O      0.980960000000     0.122990000000     0.607750000000    -0.454349   
O8       O      0.976950000000     0.978440000000     0.628940000000    -0.454762   
O9       O      0.052730000000     0.543230000000     0.620410000000    -0.454173   
O10      O      0.066210000000     0.556790000000     0.473590000000    -0.453435   
O11      O      0.049920000000     0.621910000000     0.552740000000    -0.457086   
O12      O      0.069520000000     0.477850000000     0.541560000000    -0.456748   
O13      O      0.986120000000     0.466770000000     0.533460000000    -0.45294    
O14      O      0.966740000000     0.611400000000     0.542040000000    -0.45318    
O15      O      0.983080000000     0.544280000000     0.464620000000    -0.457052   
O16      O      0.969200000000     0.533910000000     0.611410000000    -0.456095   
O17      O      0.479160000000     0.992900000000     0.471020000000    -0.454433   
O18      O      0.500770000000     0.997010000000     0.617260000000    -0.454344   
O19      O      0.420370000000     0.013950000000     0.554800000000    -0.453111   
O20      O      0.559450000000     0.976290000000     0.533990000000    -0.453669   
O21      O      0.580120000000     0.058460000000     0.528090000000    -0.457542   
O22      O      0.441690000000     0.095910000000     0.548440000000    -0.458149   
O23      O      0.521820000000     0.079100000000     0.611840000000    -0.454574   
O24      O      0.500380000000     0.074950000000     0.465370000000    -0.454712   
O25      O      0.495930000000     0.103160000000     0.020180000000    -0.454568   
O26      O      0.481370000000     0.963710000000     0.062690000000    -0.453641   
O27      O      0.487620000000     0.054870000000     0.111850000000    -0.455732   
O28      O      0.489170000000     0.012260000000     0.970660000000    -0.454711   
O29      O      0.573430000000     0.006470000000     0.972970000000    -0.453731   
O30      O      0.571360000000     0.044570000000     0.116290000000    -0.45322    
O31      O      0.565450000000     0.955340000000     0.063170000000    -0.455106   
O32      O      0.579910000000     0.095360000000     0.025370000000    -0.455894   
O33      O      0.073820000000     0.510280000000     0.979620000000    -0.456191   
O34      O      0.099060000000     0.518920000000     0.124760000000    -0.456913   
O35      O      0.016020000000     0.500590000000     0.065590000000    -0.452647   
O36      O      0.156260000000     0.528990000000     0.038270000000    -0.452653   
O37      O      0.138790000000     0.612080000000     0.036230000000    -0.457014   
O38      O      0.999230000000     0.583800000000     0.064250000000    -0.455859   
O39      O      0.082640000000     0.602240000000     0.122820000000    -0.453219   
O40      O      0.055940000000     0.593260000000     0.977360000000    -0.453393   
O41      O      0.565290000000     0.451670000000     0.090980000000    -0.453901   
O42      O      0.577820000000     0.597030000000     0.082440000000    -0.453182   
O43      O      0.503700000000     0.529550000000     0.062180000000    -0.453336   
O44      O      0.640400000000     0.519560000000     0.111490000000    -0.45329    
O45      O      0.667860000000     0.510740000000     0.030530000000    -0.454195   
O46      O      0.531550000000     0.523080000000     0.981130000000    -0.454839   
O47      O      0.607530000000     0.589670000000     0.002150000000    -0.45602    
O48      O      0.591930000000     0.444870000000     0.009530000000    -0.456124   


