data_structure

_audit_creation_method RASPA-1.0
_audit_creation_date 2023-5-19
_audit_author_name 'Poobodin Mano'

_cell_length_a    21.1707
_cell_length_b    21.1704
_cell_length_c    21.1399
_cell_angle_alpha 89.997
_cell_angle_beta  89.997
_cell_angle_gamma 89.997
_cell_volume      9474.74

_symmetry_cell_setting          triclinic
_symmetry_space_group_name_Hall 'P 1'
_symmetry_space_group_name_H-M  'P 1'
_symmetry_Int_Tables_number     1

_symmetry_equiv_pos_as_xyz 'x,y,z'

loop_
_atom_site_label
_atom_site_type_symbol
_atom_site_fract_x
_atom_site_fract_y
_atom_site_fract_z
_atom_site_charge
C1       C      0.007950000000     0.887290000000     0.511070000000     0.432105   
C2       C      0.008560000000     0.127880000000     0.506780000000     0.43354    
C3       C      0.128370000000     0.009640000000     0.514720000000     0.432863   
C4       C      0.887920000000     0.006700000000     0.503540000000     0.432461   
C5       C      0.016780000000     0.500360000000     0.629110000000     0.431859   
C6       C      0.000890000000     0.514420000000     0.388610000000     0.431117   
C7       C      0.006910000000     0.627680000000     0.513720000000     0.432754   
C8       C      0.010710000000     0.387130000000     0.503970000000     0.433123   
C9       C      0.503090000000     0.012390000000     0.388820000000     0.433667   
C10      C      0.512620000000     0.005720000000     0.629320000000     0.434343   
C11      C      0.387710000000     0.012950000000     0.515060000000     0.432279   
C12      C      0.628140000000     0.005660000000     0.504120000000     0.43205    
C13      C      0.503360000000     0.128560000000     0.002700000000     0.43042    
C14      C      0.510650000000     0.888130000000     0.013660000000     0.432334   
C15      C      0.503920000000     0.013190000000     0.128960000000     0.434224   
C16      C      0.510590000000     0.003650000000     0.888460000000     0.43477    
C17      C      0.015990000000     0.499530000000     0.888610000000     0.432818   
C18      C      0.001920000000     0.515420000000     0.129100000000     0.431967   
C19      C      0.888660000000     0.509380000000     0.003990000000     0.432157   
C20      C      0.129220000000     0.505590000000     0.013750000000     0.434126   
C21      C      0.506690000000     0.387900000000     0.003010000000     0.43178    
C22      C      0.509650000000     0.628360000000     0.014210000000     0.431276   
C23      C      0.629060000000     0.508320000000     0.006660000000     0.432129   
C24      C      0.388470000000     0.507720000000     0.010960000000     0.432182   
C25      C      0.791310000000     0.551840000000     0.968020000000     0.0341034  
C26      C      0.792310000000     0.468390000000     0.042280000000     0.0331123  
C27      C      0.726560000000     0.470010000000     0.045150000000     0.0325096  
C28      C      0.725300000000     0.549060000000     0.966220000000     0.0337391  
C29      C      0.225200000000     0.542990000000     0.971480000000     0.034713   
C30      C      0.226610000000     0.467010000000     0.053440000000     0.0331931  
C31      C      0.292590000000     0.470580000000     0.055210000000     0.0335139  
C32      C      0.290950000000     0.541410000000     0.968750000000     0.0345899  
C33      C      0.470630000000     0.791160000000     0.976610000000     0.0342391  
C34      C      0.551910000000     0.791190000000     0.053200000000     0.0327762  
C35      C      0.548510000000     0.725070000000     0.056450000000     0.0326072  
C36      C      0.471640000000     0.725480000000     0.975410000000     0.0341657  
C37      C      0.542500000000     0.224890000000     0.961460000000     0.0333488  
C38      C      0.460360000000     0.225760000000     0.037180000000     0.0316836  
C39      C      0.463710000000     0.291590000000     0.039690000000     0.0339431  
C40      C      0.541190000000     0.290870000000     0.959200000000     0.0344115  
C41      C      0.472120000000     0.964620000000     0.791160000000     0.0348655  
C42      C      0.553580000000     0.041090000000     0.792540000000     0.034019   
C43      C      0.551640000000     0.044190000000     0.726610000000     0.0342505  
C44      C      0.475210000000     0.962700000000     0.725240000000     0.0345742  
C45      C      0.540120000000     0.054840000000     0.292160000000     0.0326282  
C46      C      0.463440000000     0.973700000000     0.291570000000     0.0334291  
C47      C      0.461460000000     0.976170000000     0.225620000000     0.0332482  
C48      C      0.542610000000     0.052850000000     0.226210000000     0.0328344  
C49      C      0.980700000000     0.456980000000     0.725710000000     0.0346878  
C50      C      0.062020000000     0.533460000000     0.725960000000     0.0329695  
C51      C      0.059360000000     0.535610000000     0.792000000000     0.0337815  
C52      C      0.982860000000     0.454300000000     0.791750000000     0.0340008  
C53      C      0.037000000000     0.557900000000     0.292060000000     0.0329919  
C54      C      0.955720000000     0.481390000000     0.291680000000     0.0330314  
C55      C      0.958440000000     0.479300000000     0.225650000000     0.0340203  
C56      C      0.034920000000     0.560610000000     0.226030000000     0.0321484  
C57      C      0.224700000000     0.052610000000     0.478040000000     0.0335449  
C58      C      0.225400000000     0.975130000000     0.558540000000     0.033606   
C59      C      0.291370000000     0.973810000000     0.556280000000     0.034079   
C60      C      0.290520000000     0.055950000000     0.480570000000     0.0329871  
C61      C      0.791200000000     0.967830000000     0.461310000000     0.0334083  
C62      C      0.790800000000     0.044690000000     0.542350000000     0.0333002  
C63      C      0.725120000000     0.045700000000     0.541170000000     0.0330682  
C64      C      0.725080000000     0.964420000000     0.464560000000     0.0333864  
C65      C      0.046280000000     0.789790000000     0.472580000000     0.0325063  
C66      C      0.967220000000     0.791040000000     0.551510000000     0.033596   
C67      C      0.964440000000     0.725040000000     0.549700000000     0.0339673  
C68      C      0.047900000000     0.724040000000     0.475440000000     0.0331371  
C69      C      0.049280000000     0.289730000000     0.464280000000     0.0331899  
C70      C      0.973320000000     0.291160000000     0.546250000000     0.0344525  
C71      C      0.974900000000     0.225400000000     0.548990000000     0.0346781  
C72      C      0.045710000000     0.223750000000     0.462520000000     0.0335766  
H1       H      0.815490000000     0.585170000000     0.937490000000     0.0365041  
H2       H      0.817230000000     0.435340000000     0.072560000000     0.035913   
H3       H      0.702600000000     0.437500000000     0.076760000000     0.0366956  
H4       H      0.700180000000     0.581150000000     0.935110000000     0.0370817  
H5       H      0.200010000000     0.572860000000     0.938250000000     0.0347459  
H6       H      0.202480000000     0.436640000000     0.086980000000     0.0350403  
H7       H      0.317960000000     0.441950000000     0.089360000000     0.0346312  
H8       H      0.314860000000     0.570730000000     0.934110000000     0.0347196  
H9       H      0.438560000000     0.815510000000     0.944830000000     0.0361765  
H10      H      0.584480000000     0.815870000000     0.084130000000     0.0363492  
H11      H      0.579610000000     0.700230000000     0.088750000000     0.0363568  
H12      H      0.439840000000     0.701230000000     0.943280000000     0.0359229  
H13      H      0.575070000000     0.199880000000     0.930750000000     0.0353186  
H14      H      0.427610000000     0.201580000000     0.068360000000     0.0364261  
H15      H      0.432610000000     0.316510000000     0.071970000000     0.0351426  
H16      H      0.573390000000     0.315140000000     0.927530000000     0.0357386  
H17      H      0.439400000000     0.933460000000     0.815400000000     0.0337401  
H18      H      0.585510000000     0.072210000000     0.817840000000     0.0340888  
H19      H      0.582790000000     0.076920000000     0.702380000000     0.0336308  
H20      H      0.444090000000     0.930760000000     0.699930000000     0.0340175  
H21      H      0.571550000000     0.086860000000     0.316940000000     0.0371302  
H22      H      0.432150000000     0.941200000000     0.315920000000     0.0368365  
H23      H      0.429440000000     0.944750000000     0.200830000000     0.0371441  
H24      H      0.575110000000     0.084140000000     0.201850000000     0.0367938  
H25      H      0.948030000000     0.426250000000     0.700870000000     0.034471   
H26      H      0.093990000000     0.565170000000     0.701470000000     0.0356071  
H27      H      0.090110000000     0.568260000000     0.816840000000     0.0345168  
H28      H      0.951150000000     0.422340000000     0.816240000000     0.0358107  
H29      H      0.069630000000     0.588640000000     0.316940000000     0.0348789  
H30      H      0.923740000000     0.449650000000     0.316120000000     0.0359654  
H31      H      0.927710000000     0.446660000000     0.200770000000     0.0349344  
H32      H      0.066660000000     0.592600000000     0.201590000000     0.0358759  
H33      H      0.199770000000     0.083710000000     0.445760000000     0.0352594  
H34      H      0.201120000000     0.942930000000     0.590200000000     0.0358261  
H35      H      0.316370000000     0.941240000000     0.587000000000     0.0350436  
H36      H      0.314710000000     0.088700000000     0.449390000000     0.0361772  
H37      H      0.816040000000     0.936730000000     0.429000000000     0.0364963  
H38      H      0.815040000000     0.076500000000     0.574470000000     0.0359879  
H39      H      0.700760000000     0.077760000000     0.572950000000     0.036105   
H40      H      0.700410000000     0.931840000000     0.433630000000     0.0363458  
H41      H      0.078780000000     0.813750000000     0.440970000000     0.036758   
H42      H      0.935130000000     0.816160000000     0.582620000000     0.0371314  
H43      H      0.931120000000     0.700840000000     0.580230000000     0.0364185  
H44      H      0.080950000000     0.699130000000     0.445160000000     0.0358437  
H45      H      0.079640000000     0.313850000000     0.430730000000     0.0350581  
H46      H      0.943460000000     0.316350000000     0.579490000000     0.0347149  
H47      H      0.945580000000     0.201500000000     0.583640000000     0.0347895  
H48      H      0.074330000000     0.198380000000     0.428360000000     0.0345664  
N1       N      0.824310000000     0.510170000000     0.004710000000    -0.181708   
N2       N      0.693420000000     0.509100000000     0.005870000000    -0.181606   
N3       N      0.193480000000     0.504790000000     0.012870000000    -0.182038   
N4       N      0.324200000000     0.506670000000     0.011830000000    -0.181698   
N5       N      0.511730000000     0.823720000000     0.014350000000    -0.181405   
N6       N      0.509590000000     0.692730000000     0.016160000000    -0.181312   
N7       N      0.501540000000     0.192830000000     0.999930000000    -0.17942    
N8       N      0.503600000000     0.323690000000     0.000170000000    -0.181692   
N9       N      0.512340000000     0.002800000000     0.824220000000    -0.181901   
N10      N      0.513480000000     0.003950000000     0.693550000000    -0.181929   
N11      N      0.501940000000     0.013860000000     0.324400000000    -0.181721   
N12      N      0.502440000000     0.014340000000     0.193370000000    -0.181829   
N13      N      0.020600000000     0.496270000000     0.693320000000    -0.181341   
N14      N      0.020070000000     0.495710000000     0.824390000000    -0.181387   
N15      N      0.997100000000     0.518570000000     0.324400000000    -0.179806   
N16      N      0.997770000000     0.519210000000     0.193310000000    -0.179944   
N17      N      0.192580000000     0.012720000000     0.517570000000    -0.181356   
N18      N      0.323440000000     0.014770000000     0.517820000000    -0.181267   
N19      N      0.823540000000     0.006750000000     0.501590000000    -0.181134   
N20      N      0.692550000000     0.004590000000     0.503420000000    -0.181066   
N21      N      0.007180000000     0.822930000000     0.511860000000    -0.181476   
N22      N      0.006120000000     0.692030000000     0.513010000000    -0.181753   
N23      N      0.011520000000     0.322860000000     0.504850000000    -0.181775   
N24      N      0.009620000000     0.192150000000     0.505910000000    -0.181856   
Ni1      Ni     0.011530000000     0.006700000000     0.452780000000     0.998816   
Ni2      Ni     0.004840000000     0.008490000000     0.565110000000     1.00504    
Ni3      Ni     0.064970000000     0.509240000000     0.504400000000     1.00451    
Ni4      Ni     0.952670000000     0.505500000000     0.513310000000     1.00639    
Ni5      Ni     0.505320000000     0.952960000000     0.507690000000     1.00054    
Ni6      Ni     0.510430000000     0.065230000000     0.510530000000     1.00969    
Ni7      Ni     0.451080000000     0.005840000000     0.007240000000     1.00862    
Ni8      Ni     0.563350000000     0.010960000000     0.010080000000     0.99715    
Ni9      Ni     0.007100000000     0.451330000000     0.013310000000     1.00359    
Ni10     Ni     0.010840000000     0.563630000000     0.004400000000     1.00228    
Ni11     Ni     0.507860000000     0.511430000000     0.952620000000     1.00822    
Ni12     Ni     0.509650000000     0.504740000000     0.064950000000     0.999125   
O1       O      0.017520000000     0.916540000000     0.458790000000    -0.445578   
O2       O      0.007700000000     0.097100000000     0.454520000000    -0.445551   
O3       O      0.100990000000     0.013740000000     0.460870000000    -0.447447   
O4       O      0.920410000000     0.000090000000     0.452580000000    -0.440848   
O5       O      0.915530000000     0.013890000000     0.556930000000    -0.449333   
O6       O      0.095800000000     0.003200000000     0.565610000000    -0.443808   
O7       O      0.008460000000     0.098720000000     0.559990000000    -0.446938   
O8       O      0.999140000000     0.918140000000     0.562510000000    -0.44438    
O9       O      0.067210000000     0.505510000000     0.595630000000    -0.443069   
O10      O      0.055310000000     0.515370000000     0.414960000000    -0.448005   
O11      O      0.059760000000     0.598890000000     0.507900000000    -0.449891   
O12      O      0.062570000000     0.418280000000     0.498930000000    -0.443635   
O13      O      0.957900000000     0.415850000000     0.510270000000    -0.449319   
O14      O      0.955030000000     0.596480000000     0.518330000000    -0.443227   
O15      O      0.950470000000     0.508900000000     0.422060000000    -0.442343   
O16      O      0.962320000000     0.499750000000     0.602790000000    -0.447294   
O17      O      0.495890000000     0.959660000000     0.417790000000    -0.446134   
O18      O      0.512460000000     0.953900000000     0.597920000000    -0.445989   
O19      O      0.415940000000     0.959520000000     0.517840000000    -0.446249   
O20      O      0.596240000000     0.954320000000     0.498020000000    -0.440395   
O21      O      0.599930000000     0.058490000000     0.512380000000    -0.450875   
O22      O      0.419420000000     0.064310000000     0.508660000000    -0.444767   
O23      O      0.510720000000     0.059210000000     0.600910000000    -0.44717    
O24      O      0.512380000000     0.063530000000     0.419950000000    -0.44783    
O25      O      0.452000000000     0.096850000000     0.009110000000    -0.444441   
O26      O      0.457820000000     0.916340000000     0.005400000000    -0.450813   
O27      O      0.452780000000     0.003900000000     0.097830000000    -0.447947   
O28      O      0.457100000000     0.005540000000     0.916870000000    -0.446628   
O29      O      0.562410000000     0.003810000000     0.919850000000    -0.445599   
O30      O      0.556650000000     0.020390000000     0.099990000000    -0.44638    
O31      O      0.562000000000     0.920030000000     0.019760000000    -0.440188   
O32      O      0.556780000000     0.100330000000     0.999930000000    -0.444574   
O33      O      0.010840000000     0.449090000000     0.922080000000    -0.442658   
O34      O      0.000980000000     0.460990000000     0.102750000000    -0.448296   
O35      O      0.917460000000     0.456530000000     0.009810000000    -0.449225   
O36      O      0.098070000000     0.453740000000     0.018780000000    -0.443877   
O37      O      0.100500000000     0.558410000000     0.007440000000    -0.449939   
O38      O      0.919860000000     0.561260000000     0.999380000000    -0.441315   
O39      O      0.007440000000     0.565840000000     0.095650000000    -0.443065   
O40      O      0.016600000000     0.553980000000     0.914920000000    -0.44737    
O41      O      0.513140000000     0.420470000000     0.952130000000    -0.442941   
O42      O      0.502460000000     0.600750000000     0.960810000000    -0.449028   
O43      O      0.598210000000     0.517130000000     0.955220000000    -0.44553    
O44      O      0.417630000000     0.507830000000     0.957740000000    -0.445886   
O45      O      0.419250000000     0.508570000000     0.063220000000    -0.445137   
O46      O      0.599800000000     0.498740000000     0.058940000000    -0.445915   
O47      O      0.516260000000     0.595860000000     0.065160000000    -0.44119    
O48      O      0.502600000000     0.415280000000     0.056860000000    -0.44722    


