data_structure

_audit_creation_method RASPA-1.0
_audit_creation_date 2023-5-19
_audit_author_name 'Poobodin Mano'

_cell_length_a    29.8525
_cell_length_b    29.8526
_cell_length_c    29.8526
_cell_angle_alpha 89.997
_cell_angle_beta  89.997
_cell_angle_gamma 89.997
_cell_volume      26603.9

_symmetry_cell_setting          triclinic
_symmetry_space_group_name_Hall 'P 1'
_symmetry_space_group_name_H-M  'P 1'
_symmetry_Int_Tables_number     1

_symmetry_equiv_pos_as_xyz 'x,y,z'

loop_
_atom_site_label
_atom_site_type_symbol
_atom_site_fract_x
_atom_site_fract_y
_atom_site_fract_z
_atom_site_charge
C1       C      0.995300000000     0.909700000000     0.495400000000     0.434333   
C2       C      0.995370000000     0.081000000000     0.495380000000     0.434535   
C3       C      0.909690000000     0.995390000000     0.495370000000     0.434528   
C4       C      0.080990000000     0.995310000000     0.495420000000     0.434218   
C5       C      0.995350000000     0.495340000000     0.581000000000     0.434244   
C6       C      0.995300000000     0.495380000000     0.409700000000     0.434273   
C7       C      0.995300000000     0.581010000000     0.495370000000     0.43429    
C8       C      0.995340000000     0.409710000000     0.495330000000     0.434454   
C9       C      0.495300000000     0.995310000000     0.409690000000     0.434374   
C10      C      0.495380000000     0.995290000000     0.580990000000     0.434269   
C11      C      0.409690000000     0.995270000000     0.495390000000     0.434238   
C12      C      0.580990000000     0.995320000000     0.495300000000     0.434394   
C13      C      0.495390000000     0.080990000000     0.995320000000     0.434318   
C14      C      0.495360000000     0.909690000000     0.995360000000     0.434443   
C15      C      0.495350000000     0.995350000000     0.080990000000     0.434279   
C16      C      0.495400000000     0.995320000000     0.909690000000     0.434315   
C17      C      0.995400000000     0.495390000000     0.909690000000     0.434257   
C18      C      0.995320000000     0.495410000000     0.080990000000     0.43428    
C19      C      0.909710000000     0.495420000000     0.995300000000     0.434302   
C20      C      0.081010000000     0.495380000000     0.995380000000     0.434277   
C21      C      0.495390000000     0.409690000000     0.995290000000     0.434178   
C22      C      0.495330000000     0.580990000000     0.995310000000     0.434314   
C23      C      0.409710000000     0.495320000000     0.995320000000     0.434428   
C24      C      0.581010000000     0.495370000000     0.995280000000     0.434404   
C25      C      0.793740000000     0.456000000000     0.986770000000    -0.0878279  
C26      C      0.770050000000     0.495430000000     0.995250000000     0.0346792  
C27      C      0.793740000000     0.534860000000     0.003740000000    -0.0877195  
C28      C      0.840520000000     0.534400000000     0.003080000000     0.0722136  
C29      C      0.840520000000     0.456450000000     0.987460000000     0.0721574  
C30      C      0.720680000000     0.495430000000     0.995250000000     0.0347011  
C31      C      0.696990000000     0.503910000000     0.034690000000    -0.0877823  
C32      C      0.650210000000     0.503210000000     0.034240000000     0.0722305  
C33      C      0.650200000000     0.487590000000     0.956290000000     0.0721235  
C34      C      0.696990000000     0.486930000000     0.955830000000    -0.0878207  
C35      C      0.196980000000     0.455930000000     0.003890000000    -0.0877498  
C36      C      0.220680000000     0.495350000000     0.995380000000     0.0346772  
C37      C      0.196990000000     0.534780000000     0.986870000000    -0.0877987  
C38      C      0.150210000000     0.534340000000     0.987550000000     0.0721153  
C39      C      0.150200000000     0.456400000000     0.003220000000     0.0722489  
C40      C      0.270050000000     0.495330000000     0.995360000000     0.0347067  
C41      C      0.293750000000     0.486820000000     0.034780000000    -0.0877501  
C42      C      0.340530000000     0.487490000000     0.034310000000     0.0722209  
C43      C      0.340510000000     0.503150000000     0.956370000000     0.0721802  
C44      C      0.293730000000     0.503840000000     0.955930000000    -0.0878484  
C45      C      0.455910000000     0.793730000000     0.003840000000    -0.0877297  
C46      C      0.495330000000     0.770020000000     0.995350000000     0.0346539  
C47      C      0.534770000000     0.793710000000     0.986870000000    -0.0878301  
C48      C      0.534320000000     0.840490000000     0.987550000000     0.0721562  
C49      C      0.456380000000     0.840510000000     0.003170000000     0.0722864  
C50      C      0.495320000000     0.720660000000     0.995330000000     0.0347223  
C51      C      0.503810000000     0.696980000000     0.955900000000    -0.0878512  
C52      C      0.503130000000     0.650190000000     0.956350000000     0.0721446  
C53      C      0.487510000000     0.650180000000     0.034290000000     0.0722857  
C54      C      0.486830000000     0.696960000000     0.034760000000    -0.0878151  
C55      C      0.486910000000     0.293720000000     0.955850000000    -0.0879085  
C56      C      0.495420000000     0.270030000000     0.995280000000     0.0347609  
C57      C      0.503940000000     0.293710000000     0.034700000000    -0.0878135  
C58      C      0.503250000000     0.340490000000     0.034250000000     0.0722234  
C59      C      0.487580000000     0.340500000000     0.956320000000     0.0722323  
C60      C      0.495420000000     0.220660000000     0.995280000000     0.0346394  
C61      C      0.455990000000     0.196970000000     0.986770000000    -0.0877834  
C62      C      0.456440000000     0.150190000000     0.987460000000     0.0721055  
C63      C      0.534380000000     0.150180000000     0.003130000000     0.0722304  
C64      C      0.534840000000     0.196960000000     0.003790000000    -0.0876992  
C65      C      0.486940000000     0.955850000000     0.696970000000    -0.0878522  
C66      C      0.495430000000     0.995280000000     0.720660000000     0.034689   
C67      C      0.503900000000     0.034710000000     0.696960000000    -0.0877539  
C68      C      0.503210000000     0.034250000000     0.650180000000     0.072243   
C69      C      0.487600000000     0.956310000000     0.650190000000     0.0721762  
C70      C      0.495420000000     0.995280000000     0.770020000000     0.0346843  
C71      C      0.455990000000     0.986800000000     0.793710000000    -0.0878669  
C72      C      0.456440000000     0.987490000000     0.840490000000     0.0721425  
C73      C      0.534390000000     0.003100000000     0.840500000000     0.0722336  
C74      C      0.534850000000     0.003770000000     0.793720000000    -0.0877299  
C75      C      0.455900000000     0.003860000000     0.196960000000    -0.0877676  
C76      C      0.495310000000     0.995340000000     0.220660000000     0.0346908  
C77      C      0.534750000000     0.986830000000     0.196970000000    -0.0878737  
C78      C      0.534300000000     0.987520000000     0.150190000000     0.0721971  
C79      C      0.456370000000     0.003190000000     0.150180000000     0.072256   
C80      C      0.495300000000     0.995330000000     0.270030000000     0.0347437  
C81      C      0.486780000000     0.034750000000     0.293720000000    -0.087818   
C82      C      0.487460000000     0.034280000000     0.340500000000     0.0722641  
C83      C      0.503130000000     0.956350000000     0.340490000000     0.0722159  
C84      C      0.503810000000     0.955900000000     0.293710000000    -0.0878934  
C85      C      0.986920000000     0.534800000000     0.793710000000    -0.0878363  
C86      C      0.995400000000     0.495360000000     0.770030000000     0.0346658  
C87      C      0.003900000000     0.455940000000     0.793730000000    -0.0876969  
C88      C      0.003220000000     0.456400000000     0.840510000000     0.0722143  
C89      C      0.987600000000     0.534350000000     0.840490000000     0.072148   
C90      C      0.995390000000     0.495350000000     0.720660000000     0.0347258  
C91      C      0.034810000000     0.486860000000     0.696960000000    -0.0877963  
C92      C      0.034340000000     0.487530000000     0.650180000000     0.0722471  
C93      C      0.956390000000     0.503140000000     0.650200000000     0.0721496  
C94      C      0.955950000000     0.503830000000     0.696980000000    -0.0878606  
C95      C      0.986760000000     0.456000000000     0.196970000000    -0.0878316  
C96      C      0.995270000000     0.495430000000     0.220660000000     0.0346776  
C97      C      0.003780000000     0.534850000000     0.196960000000    -0.0877311  
C98      C      0.003120000000     0.534390000000     0.150180000000     0.0722459  
C99      C      0.987450000000     0.456460000000     0.150190000000     0.0721699  
C100     C      0.995270000000     0.495430000000     0.270030000000     0.034701   
C101     C      0.955850000000     0.486910000000     0.293730000000    -0.0878239  
C102     C      0.956320000000     0.487570000000     0.340510000000     0.0721507  
C103     C      0.034250000000     0.503240000000     0.340490000000     0.0722446  
C104     C      0.034700000000     0.503930000000     0.293710000000    -0.0877707  
C105     C      0.196970000000     0.986750000000     0.456010000000    -0.0878782  
C106     C      0.220650000000     0.995240000000     0.495440000000     0.0347344  
C107     C      0.196960000000     0.003760000000     0.534870000000    -0.0878046  
C108     C      0.150170000000     0.003100000000     0.534400000000     0.0722729  
C109     C      0.150190000000     0.987440000000     0.456470000000     0.0721985  
C110     C      0.270020000000     0.995250000000     0.495450000000     0.034666   
C111     C      0.293720000000     0.955820000000     0.486940000000    -0.0878488  
C112     C      0.340500000000     0.956290000000     0.487600000000     0.0721805  
C113     C      0.340490000000     0.034230000000     0.503250000000     0.0721976  
C114     C      0.293710000000     0.034680000000     0.503940000000    -0.087726   
C115     C      0.793700000000     0.986900000000     0.534760000000    -0.0878522  
C116     C      0.770020000000     0.995390000000     0.495320000000     0.0346808  
C117     C      0.793730000000     0.003890000000     0.455900000000    -0.0877717  
C118     C      0.840510000000     0.003220000000     0.456380000000     0.0722465  
C119     C      0.840480000000     0.987580000000     0.534320000000     0.0721811  
C120     C      0.720650000000     0.995370000000     0.495300000000     0.0347344  
C121     C      0.696980000000     0.955930000000     0.503790000000    -0.0878786  
C122     C      0.650200000000     0.956370000000     0.503110000000     0.0721863  
C123     C      0.650170000000     0.034310000000     0.487480000000     0.0722576  
C124     C      0.696950000000     0.034790000000     0.486810000000    -0.0878032  
C125     C      0.955840000000     0.696980000000     0.486930000000    -0.0878512  
C126     C      0.995270000000     0.720670000000     0.495410000000     0.0347077  
C127     C      0.034700000000     0.696980000000     0.503880000000    -0.0877875  
C128     C      0.034250000000     0.650210000000     0.503190000000     0.0722894  
C129     C      0.956310000000     0.650200000000     0.487590000000     0.0721558  
C130     C      0.995260000000     0.770040000000     0.495410000000     0.0346982  
C131     C      0.003740000000     0.793730000000     0.534850000000    -0.0878126  
C132     C      0.003070000000     0.840510000000     0.534380000000     0.0723045  
C133     C      0.987470000000     0.840510000000     0.456440000000     0.0721588  
C134     C      0.986780000000     0.793730000000     0.455980000000    -0.0878562  
C135     C      0.003910000000     0.196970000000     0.455940000000    -0.0877735  
C136     C      0.995390000000     0.220670000000     0.495360000000     0.0347057  
C137     C      0.986870000000     0.196990000000     0.534790000000    -0.0878628  
C138     C      0.987550000000     0.150200000000     0.534340000000     0.0721224  
C139     C      0.003230000000     0.150190000000     0.456410000000     0.0723199  
C140     C      0.995380000000     0.270040000000     0.495340000000     0.0347088  
C141     C      0.034800000000     0.293740000000     0.486820000000    -0.0878033  
C142     C      0.034320000000     0.340520000000     0.487490000000     0.0722726  
C143     C      0.956390000000     0.340510000000     0.503170000000     0.0721621  
C144     C      0.955950000000     0.293720000000     0.503860000000    -0.0878436  
H1       H      0.776180000000     0.565940000000     0.010350000000     0.0527818  
H2       H      0.857720000000     0.565710000000     0.009580000000     0.0264384  
H3       H      0.857730000000     0.425130000000     0.980980000000     0.0264203  
H4       H      0.776190000000     0.424920000000     0.980160000000     0.0527774  
H5       H      0.714540000000     0.510520000000     0.065760000000     0.0528129  
H6       H      0.633000000000     0.509700000000     0.065560000000     0.0264292  
H7       H      0.633000000000     0.481100000000     0.924980000000     0.0264247  
H8       H      0.714540000000     0.480330000000     0.924750000000     0.0527873  
H9       H      0.214550000000     0.565850000000     0.980240000000     0.0527743  
H10      H      0.133010000000     0.565650000000     0.981040000000     0.0264387  
H11      H      0.132980000000     0.425090000000     0.009730000000     0.0264615  
H12      H      0.214520000000     0.424850000000     0.010520000000     0.052809   
H13      H      0.276200000000     0.480200000000     0.065860000000     0.052791   
H14      H      0.357740000000     0.480980000000     0.065620000000     0.0264237  
H15      H      0.357710000000     0.509660000000     0.925050000000     0.0264228  
H16      H      0.276170000000     0.510470000000     0.924860000000     0.0527945  
H17      H      0.565840000000     0.776150000000     0.980250000000     0.0527806  
H18      H      0.565640000000     0.857690000000     0.981060000000     0.0264076  
H19      H      0.425060000000     0.857720000000     0.009660000000     0.0264239  
H20      H      0.424820000000     0.776180000000     0.010440000000     0.0527825  
H21      H      0.510420000000     0.714540000000     0.924830000000     0.0527994  
H22      H      0.509620000000     0.632990000000     0.925030000000     0.0264354  
H23      H      0.481020000000     0.632960000000     0.065610000000     0.0264217  
H24      H      0.480230000000     0.714500000000     0.065840000000     0.0528189  
H25      H      0.510560000000     0.276160000000     0.065770000000     0.052822   
H26      H      0.509760000000     0.357700000000     0.065560000000     0.0264304  
H27      H      0.481070000000     0.357710000000     0.925000000000     0.0264152  
H28      H      0.480280000000     0.276170000000     0.924780000000     0.0528175  
H29      H      0.424920000000     0.214530000000     0.980140000000     0.0527754  
H30      H      0.425130000000     0.132990000000     0.980960000000     0.026451   
H31      H      0.565690000000     0.132960000000     0.009640000000     0.0264632  
H32      H      0.565920000000     0.214510000000     0.010420000000     0.0527815  
H33      H      0.510510000000     0.065790000000     0.714510000000     0.0527906  
H34      H      0.509690000000     0.065570000000     0.632970000000     0.0264275  
H35      H      0.481120000000     0.924990000000     0.632980000000     0.0264308  
H36      H      0.480340000000     0.924770000000     0.714520000000     0.0527952  
H37      H      0.424920000000     0.980200000000     0.776160000000     0.0528077  
H38      H      0.425120000000     0.981010000000     0.857700000000     0.026426   
H39      H      0.565700000000     0.009600000000     0.857710000000     0.0264388  
H40      H      0.565930000000     0.010370000000     0.776160000000     0.052788   
H41      H      0.565810000000     0.980200000000     0.214530000000     0.0528079  
H42      H      0.565620000000     0.981010000000     0.132990000000     0.0264197  
H43      H      0.425060000000     0.009700000000     0.132960000000     0.0264596  
H44      H      0.424820000000     0.010490000000     0.214500000000     0.0528125  
H45      H      0.480150000000     0.065820000000     0.276170000000     0.0528206  
H46      H      0.480940000000     0.065590000000     0.357710000000     0.0264161  
H47      H      0.509650000000     0.925030000000     0.357690000000     0.0264119  
H48      H      0.510450000000     0.924830000000     0.276160000000     0.0528091  
H49      H      0.010510000000     0.424850000000     0.776180000000     0.0527704  
H50      H      0.009720000000     0.425090000000     0.857730000000     0.0264487  
H51      H      0.981110000000     0.565670000000     0.857690000000     0.0264134  
H52      H      0.980300000000     0.565870000000     0.776150000000     0.0527822  
H53      H      0.065890000000     0.480250000000     0.714500000000     0.0528107  
H54      H      0.065650000000     0.481030000000     0.632960000000     0.0264246  
H55      H      0.925070000000     0.509630000000     0.633000000000     0.026428   
H56      H      0.924880000000     0.510440000000     0.714540000000     0.052801   
H57      H      0.010400000000     0.565930000000     0.214510000000     0.0527922  
H58      H      0.009630000000     0.565700000000     0.132970000000     0.0264534  
H59      H      0.980960000000     0.425140000000     0.132990000000     0.0264315  
H60      H      0.980130000000     0.424930000000     0.214530000000     0.0527892  
H61      H      0.924770000000     0.480290000000     0.276180000000     0.0527828  
H62      H      0.925010000000     0.481060000000     0.357720000000     0.0264339  
H63      H      0.065570000000     0.509750000000     0.357690000000     0.0264297  
H64      H      0.065770000000     0.510560000000     0.276150000000     0.0528017  
H65      H      0.214500000000     0.010380000000     0.565940000000     0.0528354  
H66      H      0.132960000000     0.009610000000     0.565710000000     0.0264433  
H67      H      0.132990000000     0.980950000000     0.425150000000     0.0264223  
H68      H      0.214530000000     0.980120000000     0.424940000000     0.0528022  
H69      H      0.276170000000     0.924750000000     0.480320000000     0.0528038  
H70      H      0.357710000000     0.924980000000     0.481090000000     0.0264266  
H71      H      0.357690000000     0.065540000000     0.509750000000     0.0264368  
H72      H      0.276150000000     0.065750000000     0.510570000000     0.0527915  
H73      H      0.776190000000     0.010500000000     0.424820000000     0.0528115  
H74      H      0.857730000000     0.009710000000     0.425070000000     0.0264351  
H75      H      0.857670000000     0.981090000000     0.565640000000     0.0263995  
H76      H      0.776140000000     0.980280000000     0.565830000000     0.0527858  
H77      H      0.714540000000     0.924860000000     0.510410000000     0.0528027  
H78      H      0.633000000000     0.925050000000     0.509600000000     0.026421   
H79      H      0.632950000000     0.065620000000     0.480980000000     0.0264182  
H80      H      0.714490000000     0.065870000000     0.480190000000     0.0528075  
H81      H      0.065780000000     0.714540000000     0.510490000000     0.052789   
H82      H      0.065580000000     0.633000000000     0.509670000000     0.0264204  
H83      H      0.924990000000     0.632990000000     0.481100000000     0.0264353  
H84      H      0.924760000000     0.714530000000     0.480320000000     0.0527924  
H85      H      0.010340000000     0.776170000000     0.565920000000     0.0528249  
H86      H      0.009560000000     0.857710000000     0.565700000000     0.0264211  
H87      H      0.980990000000     0.857720000000     0.425120000000     0.0264169  
H88      H      0.980180000000     0.776180000000     0.424900000000     0.0527873  
H89      H      0.980240000000     0.214540000000     0.565850000000     0.0528151  
H90      H      0.981030000000     0.133000000000     0.565650000000     0.026436   
H91      H      0.009740000000     0.132980000000     0.425100000000     0.0264403  
H92      H      0.010540000000     0.214520000000     0.424860000000     0.0528065  
H93      H      0.065870000000     0.276190000000     0.480190000000     0.0528181  
H94      H      0.065630000000     0.357730000000     0.480970000000     0.0264177  
H95      H      0.925070000000     0.357710000000     0.509680000000     0.0264296  
H96      H      0.924880000000     0.276170000000     0.510490000000     0.0528001  
N1       N      0.863750000000     0.495420000000     0.995280000000    -0.197786   
N2       N      0.626970000000     0.495390000000     0.995270000000    -0.197799   
N3       N      0.126970000000     0.495370000000     0.995380000000    -0.197768   
N4       N      0.363760000000     0.495320000000     0.995330000000    -0.197861   
N5       N      0.495350000000     0.863730000000     0.995360000000    -0.197845   
N6       N      0.495320000000     0.626950000000     0.995320000000    -0.197804   
N7       N      0.495410000000     0.363730000000     0.995280000000    -0.197789   
N8       N      0.495410000000     0.126950000000     0.995300000000    -0.197763   
N9       N      0.495400000000     0.995280000000     0.626950000000    -0.197796   
N10      N      0.495410000000     0.995310000000     0.863730000000    -0.197785   
N11      N      0.495340000000     0.995350000000     0.126950000000    -0.197797   
N12      N      0.495300000000     0.995310000000     0.363730000000    -0.197829   
N13      N      0.995410000000     0.495380000000     0.863730000000    -0.197784   
N14      N      0.995360000000     0.495330000000     0.626950000000    -0.197829   
N15      N      0.995300000000     0.495420000000     0.126950000000    -0.197786   
N16      N      0.995290000000     0.495400000000     0.363740000000    -0.19778    
N17      N      0.126950000000     0.995280000000     0.495430000000    -0.197801   
N18      N      0.363730000000     0.995260000000     0.495410000000    -0.197772   
N19      N      0.863730000000     0.995400000000     0.495360000000    -0.19784    
N20      N      0.626950000000     0.995330000000     0.495290000000    -0.197827   
N21      N      0.995290000000     0.626960000000     0.495380000000    -0.197848   
N22      N      0.995280000000     0.863750000000     0.495410000000    -0.197866   
N23      N      0.995390000000     0.126960000000     0.495370000000    -0.197831   
N24      N      0.995350000000     0.363750000000     0.495330000000    -0.197826   
Ni1      Ni     0.995320000000     0.995360000000     0.535200000000     1.00244    
Ni2      Ni     0.995350000000     0.995350000000     0.455580000000     1.00247    
Ni3      Ni     0.035130000000     0.495360000000     0.495330000000     1.00263    
Ni4      Ni     0.955510000000     0.495350000000     0.495360000000     1.0023     
Ni5      Ni     0.495350000000     0.955490000000     0.495340000000     1.00225    
Ni6      Ni     0.495330000000     0.035110000000     0.495340000000     1.00259    
Ni7      Ni     0.455570000000     0.995350000000     0.995330000000     1.00237    
Ni8      Ni     0.535190000000     0.995330000000     0.995350000000     1.00235    
Ni9      Ni     0.995360000000     0.455590000000     0.995350000000     1.00242    
Ni10     Ni     0.995360000000     0.535210000000     0.995330000000     1.00238    
Ni11     Ni     0.495370000000     0.495340000000     0.035110000000     1.00275    
Ni12     Ni     0.495350000000     0.495350000000     0.955490000000     1.00235    
O1       O      0.997320000000     0.931230000000     0.532580000000    -0.449824   
O2       O      0.993330000000     0.059480000000     0.532560000000    -0.449923   
O3       O      0.931200000000     0.993370000000     0.532550000000    -0.450006   
O4       O      0.059450000000     0.997350000000     0.532590000000    -0.449777   
O5       O      0.059470000000     0.993300000000     0.458230000000    -0.449759   
O6       O      0.931230000000     0.997400000000     0.458200000000    -0.450009   
O7       O      0.997400000000     0.059480000000     0.458210000000    -0.449912   
O8       O      0.993300000000     0.931230000000     0.458220000000    -0.449896   
O9       O      0.032520000000     0.493330000000     0.559460000000    -0.449777   
O10      O      0.032480000000     0.497400000000     0.431210000000    -0.449881   
O11      O      0.032480000000     0.559490000000     0.497370000000    -0.449799   
O12      O      0.032510000000     0.431240000000     0.493300000000    -0.449928   
O13      O      0.958160000000     0.431220000000     0.497360000000    -0.449902   
O14      O      0.958120000000     0.559480000000     0.493350000000    -0.44977    
O15      O      0.958120000000     0.493350000000     0.431230000000    -0.449782   
O16      O      0.958160000000     0.497350000000     0.559480000000    -0.449817   
O17      O      0.497340000000     0.958130000000     0.431210000000    -0.44983    
O18      O      0.493360000000     0.958110000000     0.559470000000    -0.449802   
O19      O      0.431220000000     0.958100000000     0.493350000000    -0.449837   
O20      O      0.559480000000     0.958140000000     0.497330000000    -0.449863   
O21      O      0.559450000000     0.032490000000     0.493290000000    -0.449888   
O22      O      0.431200000000     0.032460000000     0.497400000000    -0.449734   
O23      O      0.497380000000     0.032470000000     0.559470000000    -0.449795   
O24      O      0.493280000000     0.032480000000     0.431220000000    -0.4499     
O25      O      0.458210000000     0.059480000000     0.993290000000    -0.449799   
O26      O      0.458190000000     0.931230000000     0.997370000000    -0.449956   
O27      O      0.458180000000     0.997380000000     0.059460000000    -0.449803   
O28      O      0.458210000000     0.993320000000     0.931210000000    -0.449839   
O29      O      0.532570000000     0.997340000000     0.931220000000    -0.449877   
O30      O      0.532540000000     0.993320000000     0.059470000000    -0.449796   
O31      O      0.532540000000     0.931210000000     0.993340000000    -0.449937   
O32      O      0.532570000000     0.059460000000     0.997350000000    -0.449776   
O33      O      0.997410000000     0.458210000000     0.931230000000    -0.449854   
O34      O      0.993300000000     0.458230000000     0.059470000000    -0.449829   
O35      O      0.931230000000     0.458230000000     0.993300000000    -0.449772   
O36      O      0.059480000000     0.458210000000     0.997400000000    -0.44988    
O37      O      0.059490000000     0.532570000000     0.993340000000    -0.449713   
O38      O      0.931240000000     0.532590000000     0.997330000000    -0.449954   
O39      O      0.997350000000     0.532590000000     0.059460000000    -0.449756   
O40      O      0.993380000000     0.532570000000     0.931210000000    -0.449899   
O41      O      0.497410000000     0.431210000000     0.032470000000    -0.449761   
O42      O      0.493330000000     0.559460000000     0.032490000000    -0.449854   
O43      O      0.431250000000     0.493300000000     0.032490000000    -0.449905   
O44      O      0.559490000000     0.497380000000     0.032460000000    -0.449911   
O45      O      0.559480000000     0.493350000000     0.958110000000    -0.449881   
O46      O      0.431230000000     0.497350000000     0.958140000000    -0.449942   
O47      O      0.497350000000     0.559480000000     0.958130000000    -0.44986    
O48      O      0.493360000000     0.431220000000     0.958110000000    -0.449758   


