data_structure

_audit_creation_method RASPA-1.0
_audit_creation_date 2023-5-23
_audit_author_name 'Poobodin Mano'

_cell_length_a    29.9646
_cell_length_b    29.9601
_cell_length_c    29.8494
_cell_angle_alpha 90
_cell_angle_beta  89.997
_cell_angle_gamma 90
_cell_volume      26797.1

_symmetry_cell_setting          triclinic
_symmetry_space_group_name_Hall 'P 1'
_symmetry_space_group_name_H-M  'P 1'
_symmetry_Int_Tables_number     1

_symmetry_equiv_pos_as_xyz 'x,y,z'

loop_
_atom_site_label
_atom_site_type_symbol
_atom_site_fract_x
_atom_site_fract_y
_atom_site_fract_z
_atom_site_charge
C1       C      0.993110000000     0.995590000000     0.581340000000     0.43414    
C2       C      0.993090000000     0.991560000000     0.410060000000     0.43408    
C3       C      0.993150000000     0.078890000000     0.493940000000     0.434423   
C4       C      0.993110000000     0.908270000000     0.497440000000     0.434434   
C5       C      0.993650000000     0.492880000000     0.580940000000     0.434484   
C6       C      0.993640000000     0.494280000000     0.409660000000     0.434297   
C7       C      0.993600000000     0.578900000000     0.496130000000     0.434522   
C8       C      0.993650000000     0.408260000000     0.494500000000     0.434305   
C9       C      0.493900000000     0.995560000000     0.409810000000     0.434211   
C10      C      0.493880000000     0.991570000000     0.581090000000     0.43429    
C11      C      0.493870000000     0.078870000000     0.497170000000     0.434664   
C12      C      0.493840000000     0.908260000000     0.493710000000     0.434543   
C13      C      0.493380000000     0.494250000000     0.580770000000     0.434588   
C14      C      0.493380000000     0.492880000000     0.409490000000     0.434681   
C15      C      0.493410000000     0.408240000000     0.495930000000     0.434635   
C16      C      0.493380000000     0.578890000000     0.494340000000     0.434697   
C17      C      0.993460000000     0.995530000000     0.910040000000     0.434257   
C18      C      0.993420000000     0.991610000000     0.081360000000     0.434301   
C19      C      0.908170000000     0.993570000000     0.995680000000     0.43469    
C20      C      0.078810000000     0.993570000000     0.995710000000     0.434908   
C21      C      0.993520000000     0.493270000000     0.909660000000     0.434474   
C22      C      0.993510000000     0.493880000000     0.080940000000     0.434482   
C23      C      0.908200000000     0.493580000000     0.995290000000     0.434504   
C24      C      0.078840000000     0.493570000000     0.995290000000     0.434399   
C25      C      0.493510000000     0.995520000000     0.081120000000     0.434225   
C26      C      0.493470000000     0.991620000000     0.909790000000     0.434274   
C27      C      0.578760000000     0.993570000000     0.995440000000     0.434661   
C28      C      0.408120000000     0.993580000000     0.995480000000     0.434935   
C29      C      0.493530000000     0.493870000000     0.909480000000     0.434466   
C30      C      0.493530000000     0.493280000000     0.080770000000     0.434444   
C31      C      0.408210000000     0.493570000000     0.995130000000     0.434521   
C32      C      0.578850000000     0.493580000000     0.995130000000     0.434434   
C33      C      0.694380000000     0.454770000000     0.984910000000    -0.0863579  
C34      C      0.718560000000     0.493590000000     0.995190000000     0.0345559  
C35      C      0.694370000000     0.532420000000     0.005430000000    -0.08627    
C36      C      0.647760000000     0.531970000000     0.004610000000     0.0724177  
C37      C      0.647780000000     0.455210000000     0.985680000000     0.0722818  
C38      C      0.768490000000     0.493590000000     0.995220000000     0.0345623  
C39      C      0.792670000000     0.454770000000     0.005500000000    -0.0862658  
C40      C      0.839270000000     0.455210000000     0.004730000000     0.0723912  
C41      C      0.839280000000     0.531970000000     0.985790000000     0.0722902  
C42      C      0.792680000000     0.532410000000     0.984970000000    -0.0863512  
C43      C      0.194350000000     0.454720000000     0.985070000000    -0.0863263  
C44      C      0.218550000000     0.493560000000     0.995230000000     0.034554   
C45      C      0.194370000000     0.532410000000     0.005410000000    -0.086223   
C46      C      0.147760000000     0.531970000000     0.004630000000     0.0723625  
C47      C      0.147750000000     0.455150000000     0.985910000000     0.0722987  
C48      C      0.268500000000     0.493560000000     0.995200000000     0.0345733  
C49      C      0.292690000000     0.454720000000     0.005360000000    -0.0862343  
C50      C      0.339290000000     0.455150000000     0.004520000000     0.0723726  
C51      C      0.339280000000     0.531970000000     0.985790000000     0.0722311  
C52      C      0.292680000000     0.532400000000     0.985010000000    -0.0863128  
C53      C      0.792690000000     0.954580000000     0.985960000000    -0.0863465  
C54      C      0.768460000000     0.993560000000     0.995570000000     0.0345338  
C55      C      0.792670000000     0.032540000000     0.005230000000    -0.0861158  
C56      C      0.839270000000     0.032120000000     0.004360000000     0.07268    
C57      C      0.839290000000     0.955010000000     0.986910000000     0.0724557  
C58      C      0.718470000000     0.993560000000     0.995530000000     0.034527   
C59      C      0.694250000000     0.032540000000     0.985880000000    -0.0862423  
C60      C      0.647660000000     0.032120000000     0.986750000000     0.0726181  
C61      C      0.647640000000     0.955010000000     0.004190000000     0.0725476  
C62      C      0.694240000000     0.954580000000     0.005130000000    -0.0862114  
C63      C      0.194320000000     0.032420000000     0.005830000000    -0.086147   
C64      C      0.218500000000     0.993580000000     0.995640000000     0.0345024  
C65      C      0.194310000000     0.954730000000     0.985480000000    -0.0863958  
C66      C      0.147720000000     0.955160000000     0.986330000000     0.0723758  
C67      C      0.147720000000     0.031980000000     0.005040000000     0.0725767  
C68      C      0.268430000000     0.993580000000     0.995600000000     0.0344966  
C69      C      0.292610000000     0.032430000000     0.985410000000    -0.0862882  
C70      C      0.339200000000     0.031990000000     0.986180000000     0.0724752  
C71      C      0.339210000000     0.955160000000     0.004890000000     0.0724215  
C72      C      0.292620000000     0.954730000000     0.005750000000    -0.0862746  
C73      C      0.532630000000     0.483880000000     0.293530000000    -0.0878506  
C74      C      0.493430000000     0.492660000000     0.269820000000     0.0349747  
C75      C      0.454190000000     0.501380000000     0.293490000000    -0.0878422  
C76      C      0.454620000000     0.500710000000     0.340270000000     0.0724134  
C77      C      0.532150000000     0.484570000000     0.340320000000     0.0724013  
C78      C      0.493480000000     0.492810000000     0.220440000000     0.0349146  
C79      C      0.502250000000     0.453660000000     0.196620000000    -0.0878018  
C80      C      0.501590000000     0.454270000000     0.149840000000     0.0723685  
C81      C      0.485440000000     0.531820000000     0.150090000000     0.0723409  
C82      C      0.484740000000     0.532110000000     0.196870000000    -0.0877723  
C83      C      0.532630000000     0.503280000000     0.696720000000    -0.0877942  
C84      C      0.493430000000     0.494480000000     0.720440000000     0.0349178  
C85      C      0.454190000000     0.485740000000     0.696770000000    -0.0878017  
C86      C      0.454620000000     0.486410000000     0.649990000000     0.072386   
C87      C      0.532150000000     0.502580000000     0.649930000000     0.0723674  
C88      C      0.493480000000     0.494330000000     0.769810000000     0.0349263  
C89      C      0.502240000000     0.533480000000     0.793630000000    -0.087771   
C90      C      0.501580000000     0.532870000000     0.840420000000     0.0723475  
C91      C      0.485450000000     0.455330000000     0.840170000000     0.0724153  
C92      C      0.484740000000     0.455030000000     0.793380000000    -0.0878151  
C93      C      0.533330000000     0.989630000000     0.293730000000    -0.0878028  
C94      C      0.494040000000     0.998280000000     0.270150000000     0.0347819  
C95      C      0.454740000000     0.006370000000     0.293930000000    -0.0875932  
C96      C      0.455170000000     0.004950000000     0.340720000000     0.0723447  
C97      C      0.532840000000     0.989510000000     0.340510000000     0.0722746  
C98      C      0.493880000000     0.997810000000     0.220790000000     0.0347764  
C99      C      0.501000000000     0.957940000000     0.197670000000    -0.087932   
C100     C      0.500250000000     0.957720000000     0.150920000000     0.0724577  
C101     C      0.487170000000     0.035830000000     0.149710000000     0.0723072  
C102     C      0.486640000000     0.037020000000     0.196530000000    -0.0875319  
C103     C      0.454690000000     0.980790000000     0.696970000000    -0.0877532  
C104     C      0.493990000000     0.988860000000     0.720760000000     0.0349092  
C105     C      0.533300000000     0.997490000000     0.697170000000    -0.0879492  
C106     C      0.532810000000     0.997600000000     0.650390000000     0.0722162  
C107     C      0.455130000000     0.982200000000     0.650180000000     0.0722485  
C108     C      0.493830000000     0.989330000000     0.770120000000     0.0347395  
C109     C      0.486580000000     0.950120000000     0.794380000000    -0.0876433  
C110     C      0.487120000000     0.951310000000     0.841200000000     0.0721932  
C111     C      0.500200000000     0.029420000000     0.839980000000     0.0725269  
C112     C      0.500940000000     0.029200000000     0.793230000000    -0.0878125  
C113     C      0.454880000000     0.792830000000     0.482720000000    -0.086376   
C114     C      0.493650000000     0.768540000000     0.492920000000     0.0346703  
C115     C      0.532550000000     0.792630000000     0.503100000000    -0.0863906  
C116     C      0.532200000000     0.839240000000     0.502420000000     0.0723619  
C117     C      0.455410000000     0.839430000000     0.483650000000     0.0723237  
C118     C      0.493510000000     0.718600000000     0.493090000000     0.034645   
C119     C      0.454650000000     0.694550000000     0.503490000000    -0.0863144  
C120     C      0.455030000000     0.647930000000     0.503080000000     0.0722713  
C121     C      0.531800000000     0.647690000000     0.484180000000     0.0723205  
C122     C      0.532290000000     0.694280000000     0.482990000000    -0.0863619  
C123     C      0.454940000000     0.194330000000     0.507960000000    -0.0863708  
C124     C      0.493710000000     0.218590000000     0.497710000000     0.0346562  
C125     C      0.532610000000     0.194470000000     0.487580000000    -0.086354   
C126     C      0.532250000000     0.147870000000     0.488370000000     0.0723538  
C127     C      0.455460000000     0.147720000000     0.507140000000     0.0723588  
C128     C      0.493570000000     0.268530000000     0.497420000000     0.034669   
C129     C      0.454710000000     0.292560000000     0.486960000000    -0.0863856  
C130     C      0.455080000000     0.339170000000     0.487280000000     0.0723265  
C131     C      0.531850000000     0.339470000000     0.506170000000     0.0723207  
C132     C      0.532350000000     0.292880000000     0.507460000000    -0.086385   
C133     C      0.002280000000     0.455060000000     0.197050000000    -0.0876784  
C134     C      0.993550000000     0.494370000000     0.220610000000     0.0348168  
C135     C      0.984790000000     0.533510000000     0.196790000000    -0.0877424  
C136     C      0.985450000000     0.532900000000     0.150000000000     0.0722883  
C137     C      0.001580000000     0.455350000000     0.150270000000     0.072488   
C138     C      0.993600000000     0.494520000000     0.269990000000     0.0348191  
C139     C      0.954400000000     0.503290000000     0.293710000000    -0.0877676  
C140     C      0.954870000000     0.502600000000     0.340490000000     0.0723342  
C141     C      0.032410000000     0.486480000000     0.340440000000     0.0724475  
C142     C      0.032840000000     0.485810000000     0.293660000000    -0.0876846  
C143     C      0.954410000000     0.483830000000     0.696900000000    -0.0878123  
C144     C      0.993610000000     0.492630000000     0.720610000000     0.034828   
C145     C      0.032840000000     0.501380000000     0.696940000000    -0.0876829  
C146     C      0.032410000000     0.500710000000     0.650150000000     0.0724535  
C147     C      0.954890000000     0.484530000000     0.650110000000     0.0723847  
C148     C      0.993570000000     0.492790000000     0.769990000000     0.0348276  
C149     C      0.984790000000     0.453640000000     0.793810000000    -0.0878213  
C150     C      0.985460000000     0.454260000000     0.840590000000     0.0723433  
C151     C      0.001610000000     0.531800000000     0.840330000000     0.0724757  
C152     C      0.002310000000     0.532090000000     0.793550000000    -0.0876899  
C153     C      0.032240000000     0.980740000000     0.294180000000    -0.0876578  
C154     C      0.992930000000     0.988830000000     0.270400000000     0.0348805  
C155     C      0.953640000000     0.997480000000     0.293990000000    -0.0880168  
C156     C      0.954140000000     0.997600000000     0.340770000000     0.0722285  
C157     C      0.031810000000     0.982160000000     0.340960000000     0.0723593  
C158     C      0.993080000000     0.989300000000     0.221030000000     0.034508   
C159     C      0.985960000000     0.029170000000     0.197930000000    -0.0877019  
C160     C      0.986690000000     0.029400000000     0.151180000000     0.0724217  
C161     C      0.999770000000     0.951290000000     0.149950000000     0.0717967  
C162     C      0.000320000000     0.950100000000     0.196770000000    -0.0871902  
C163     C      0.000360000000     0.037050000000     0.794630000000    -0.0871178  
C164     C      0.993140000000     0.997840000000     0.770370000000     0.0345695  
C165     C      0.986040000000     0.957960000000     0.793470000000    -0.0878604  
C166     C      0.986760000000     0.957740000000     0.840220000000     0.0723343  
C167     C      0.999800000000     0.035860000000     0.841450000000     0.0718664  
C168     C      0.992990000000     0.998320000000     0.721010000000     0.0346446  
C169     C      0.953670000000     0.989710000000     0.697430000000    -0.0878205  
C170     C      0.954170000000     0.989590000000     0.650640000000     0.0722756  
C171     C      0.031860000000     0.004950000000     0.650430000000     0.0723753  
C172     C      0.032290000000     0.006370000000     0.697210000000    -0.0874198  
C173     C      0.032050000000     0.792810000000     0.508230000000    -0.0862669  
C174     C      0.993270000000     0.768550000000     0.497980000000     0.0345512  
C175     C      0.954380000000     0.792670000000     0.487870000000    -0.086346   
C176     C      0.954730000000     0.839270000000     0.488650000000     0.0722897  
C177     C      0.031520000000     0.839420000000     0.507410000000     0.072444   
C178     C      0.993420000000     0.718610000000     0.497680000000     0.034543   
C179     C      0.032290000000     0.694590000000     0.487200000000    -0.0862544  
C180     C      0.031920000000     0.647980000000     0.487500000000     0.0724491  
C181     C      0.955160000000     0.647670000000     0.506410000000     0.0723023  
C182     C      0.954650000000     0.694250000000     0.507710000000    -0.0863755  
C183     C      0.032380000000     0.292600000000     0.503660000000    -0.086235   
C184     C      0.993510000000     0.268540000000     0.493260000000     0.0345387  
C185     C      0.954740000000     0.292870000000     0.483160000000    -0.0863767  
C186     C      0.955240000000     0.339460000000     0.484340000000     0.0723674  
C187     C      0.032000000000     0.339210000000     0.503230000000     0.072371   
C188     C      0.993360000000     0.218600000000     0.493110000000     0.0345384  
C189     C      0.032130000000     0.194310000000     0.482910000000    -0.0861955  
C190     C      0.031600000000     0.147700000000     0.483850000000     0.0724056  
C191     C      0.954800000000     0.147920000000     0.502630000000     0.072248   
C192     C      0.954460000000     0.194520000000     0.503300000000    -0.0863369  
H1       H      0.711050000000     0.563080000000     0.014710000000     0.0507118  
H2       H      0.630590000000     0.562790000000     0.012740000000     0.0262735  
H3       H      0.630620000000     0.424390000000     0.977540000000     0.0262475  
H4       H      0.711070000000     0.424100000000     0.975660000000     0.0506596  
H5       H      0.775970000000     0.424110000000     0.014760000000     0.0507037  
H6       H      0.856430000000     0.424390000000     0.012880000000     0.026275   
H7       H      0.856460000000     0.562790000000     0.977660000000     0.0262524  
H8       H      0.776000000000     0.563080000000     0.975690000000     0.0506497  
H9       H      0.211050000000     0.563090000000     0.014620000000     0.0506956  
H10      H      0.130600000000     0.562800000000     0.012700000000     0.0262834  
H11      H      0.130580000000     0.424320000000     0.977850000000     0.0262506  
H12      H      0.211020000000     0.424030000000     0.975850000000     0.0506452  
H13      H      0.276020000000     0.424030000000     0.014580000000     0.0506841  
H14      H      0.356470000000     0.424320000000     0.012580000000     0.0262775  
H15      H      0.356450000000     0.562800000000     0.977720000000     0.0262575  
H16      H      0.276000000000     0.563090000000     0.975800000000     0.0506333  
H17      H      0.776070000000     0.063360000000     0.014090000000     0.0506002  
H18      H      0.856450000000     0.063050000000     0.011990000000     0.0259679  
H19      H      0.856480000000     0.924080000000     0.979310000000     0.0259443  
H20      H      0.776110000000     0.923770000000     0.977060000000     0.0505804  
H21      H      0.710850000000     0.063360000000     0.977020000000     0.0505667  
H22      H      0.630470000000     0.063060000000     0.979140000000     0.0259376  
H23      H      0.630450000000     0.924070000000     0.011780000000     0.0259811  
H24      H      0.710820000000     0.923760000000     0.014020000000     0.0505998  
H25      H      0.210980000000     0.924050000000     0.976250000000     0.0506734  
H26      H      0.130540000000     0.924330000000     0.978270000000     0.0262155  
H27      H      0.130550000000     0.062810000000     0.013120000000     0.0262414  
H28      H      0.211000000000     0.063110000000     0.015040000000     0.0506895  
H29      H      0.275920000000     0.063110000000     0.976210000000     0.0506697  
H30      H      0.356370000000     0.062820000000     0.978100000000     0.0261948  
H31      H      0.356390000000     0.924330000000     0.012940000000     0.0262389  
H32      H      0.275950000000     0.924050000000     0.014980000000     0.0507054  
H33      H      0.423290000000     0.508210000000     0.275920000000     0.0529953  
H34      H      0.423450000000     0.507420000000     0.357460000000     0.0265121  
H35      H      0.563300000000     0.477900000000     0.357550000000     0.0264924  
H36      H      0.563550000000     0.477080000000     0.276000000000     0.0530111  
H37      H      0.509060000000     0.422690000000     0.214070000000     0.0529955  
H38      H      0.508300000000     0.423180000000     0.132520000000     0.0265305  
H39      H      0.478750000000     0.563030000000     0.132980000000     0.0265192  
H40      H      0.477910000000     0.562970000000     0.214520000000     0.0529759  
H41      H      0.423290000000     0.478900000000     0.714340000000     0.0529783  
H42      H      0.423460000000     0.479680000000     0.632800000000     0.0265149  
H43      H      0.563290000000     0.509270000000     0.632700000000     0.0264905  
H44      H      0.563550000000     0.510090000000     0.714250000000     0.0529848  
H45      H      0.509040000000     0.564460000000     0.776180000000     0.0529649  
H46      H      0.508290000000     0.563970000000     0.857730000000     0.026508   
H47      H      0.478760000000     0.424110000000     0.857270000000     0.0264831  
H48      H      0.477920000000     0.424170000000     0.775730000000     0.0529856  
H49      H      0.423750000000     0.013020000000     0.276450000000     0.0530707  
H50      H      0.423940000000     0.011030000000     0.358020000000     0.026548   
H51      H      0.564040000000     0.982760000000     0.357620000000     0.0265461  
H52      H      0.564290000000     0.983220000000     0.276090000000     0.0530268  
H53      H      0.506620000000     0.927040000000     0.215670000000     0.053113   
H54      H      0.505690000000     0.926040000000     0.134240000000     0.0264819  
H55      H      0.481680000000     0.066940000000     0.131990000000     0.0264559  
H56      H      0.481090000000     0.068420000000     0.213650000000     0.0530228  
H57      H      0.564250000000     0.003890000000     0.714820000000     0.0531694  
H58      H      0.564010000000     0.004340000000     0.633290000000     0.026664   
H59      H      0.423900000000     0.976140000000     0.632870000000     0.0265189  
H60      H      0.423700000000     0.974160000000     0.714450000000     0.0530603  
H61      H      0.481030000000     0.918730000000     0.777250000000     0.0530189  
H62      H      0.481630000000     0.920200000000     0.858920000000     0.0264354  
H63      H      0.505640000000     0.061100000000     0.856660000000     0.0264802  
H64      H      0.506570000000     0.060100000000     0.775230000000     0.0531097  
H65      H      0.563190000000     0.775880000000     0.512310000000     0.0507007  
H66      H      0.563050000000     0.856320000000     0.510580000000     0.0262612  
H67      H      0.424610000000     0.856690000000     0.475640000000     0.0262231  
H68      H      0.424170000000     0.776210000000     0.473480000000     0.050669   
H69      H      0.424010000000     0.711350000000     0.512640000000     0.0506762  
H70      H      0.424200000000     0.630860000000     0.511360000000     0.026256   
H71      H      0.562590000000     0.630410000000     0.476200000000     0.0262678  
H72      H      0.562980000000     0.710850000000     0.473590000000     0.0506604  
H73      H      0.563260000000     0.211210000000     0.478350000000     0.0506862  
H74      H      0.563100000000     0.130770000000     0.480240000000     0.0262904  
H75      H      0.424660000000     0.130480000000     0.515170000000     0.0262329  
H76      H      0.424230000000     0.210970000000     0.517160000000     0.0506778  
H77      H      0.424080000000     0.275740000000     0.477850000000     0.0507159  
H78      H      0.424250000000     0.356230000000     0.478970000000     0.0262461  
H79      H      0.562630000000     0.356760000000     0.514130000000     0.0262656  
H80      H      0.563030000000     0.276330000000     0.516900000000     0.0506821  
H81      H      0.977990000000     0.564490000000     0.214240000000     0.0529488  
H82      H      0.978750000000     0.563990000000     0.132690000000     0.0265249  
H83      H      0.008270000000     0.424130000000     0.133160000000     0.0265423  
H84      H      0.009100000000     0.424200000000     0.214700000000     0.0530004  
H85      H      0.923470000000     0.510090000000     0.276180000000     0.0529646  
H86      H      0.923730000000     0.509270000000     0.357730000000     0.0265037  
H87      H      0.063570000000     0.479760000000     0.357630000000     0.0265224  
H88      H      0.063740000000     0.478990000000     0.276090000000     0.0529887  
H89      H      0.063740000000     0.508220000000     0.714500000000     0.0529762  
H90      H      0.063570000000     0.507450000000     0.632960000000     0.0265138  
H91      H      0.923740000000     0.477840000000     0.632880000000     0.0264879  
H92      H      0.923490000000     0.477010000000     0.714430000000     0.0529796  
H93      H      0.977980000000     0.422670000000     0.776360000000     0.0529719  
H94      H      0.978740000000     0.423160000000     0.857910000000     0.0265033  
H95      H      0.008310000000     0.563020000000     0.857440000000     0.0265216  
H96      H      0.009140000000     0.562950000000     0.775900000000     0.0529853  
H97      H      0.922690000000     0.003900000000     0.276360000000     0.0531936  
H98      H      0.922940000000     0.004350000000     0.357880000000     0.0266591  
H99      H      0.063040000000     0.976080000000     0.358260000000     0.0265067  
H100     H      0.063220000000     0.974090000000     0.276680000000     0.0530617  
H101     H      0.980330000000     0.060070000000     0.215930000000     0.0530694  
H102     H      0.981250000000     0.061080000000     0.134500000000     0.0265086  
H103     H      0.005260000000     0.920180000000     0.132220000000     0.0266606  
H104     H      0.005880000000     0.918700000000     0.213890000000     0.0529467  
H105     H      0.980430000000     0.927060000000     0.775470000000     0.0530739  
H106     H      0.981330000000     0.926060000000     0.856900000000     0.0264857  
H107     H      0.005280000000     0.066960000000     0.859180000000     0.0266421  
H108     H      0.005900000000     0.068450000000     0.777510000000     0.0529613  
H109     H      0.922720000000     0.983330000000     0.715070000000     0.0530501  
H110     H      0.922960000000     0.982870000000     0.633540000000     0.0265393  
H111     H      0.063090000000     0.011000000000     0.633130000000     0.0265466  
H112     H      0.063290000000     0.012980000000     0.714700000000     0.0530388  
H113     H      0.923730000000     0.775940000000     0.478630000000     0.0506705  
H114     H      0.923880000000     0.856370000000     0.480540000000     0.0262691  
H115     H      0.062320000000     0.856660000000     0.515440000000     0.0262044  
H116     H      0.062760000000     0.776180000000     0.517430000000     0.0506711  
H117     H      0.062920000000     0.711420000000     0.478090000000     0.0506943  
H118     H      0.062760000000     0.630930000000     0.479180000000     0.0262382  
H119     H      0.924370000000     0.630370000000     0.514360000000     0.0262604  
H120     H      0.923960000000     0.710790000000     0.517160000000     0.0506563  
H121     H      0.924050000000     0.276300000000     0.473760000000     0.0506614  
H122     H      0.924440000000     0.356730000000     0.476360000000     0.0262511  
H123     H      0.062830000000     0.356280000000     0.511500000000     0.0262518  
H124     H      0.063010000000     0.275800000000     0.512800000000     0.0507036  
H125     H      0.062850000000     0.210920000000     0.473670000000     0.050648   
H126     H      0.062390000000     0.130430000000     0.475850000000     0.026243   
H127     H      0.923950000000     0.130840000000     0.510790000000     0.0263038  
H128     H      0.923820000000     0.211280000000     0.512500000000     0.0506879  
N1       N      0.624630000000     0.493590000000     0.995140000000    -0.197895   
N2       N      0.862420000000     0.493590000000     0.995270000000    -0.197891   
N3       N      0.124620000000     0.493560000000     0.995280000000    -0.197865   
N4       N      0.362430000000     0.493560000000     0.995150000000    -0.197865   
N5       N      0.862410000000     0.993570000000     0.995650000000    -0.198085   
N6       N      0.624520000000     0.993570000000     0.995450000000    -0.198091   
N7       N      0.124580000000     0.993570000000     0.995700000000    -0.198073   
N8       N      0.362350000000     0.993580000000     0.995520000000    -0.198059   
N9       N      0.493380000000     0.492690000000     0.363530000000    -0.197827   
N10      N      0.493520000000     0.493120000000     0.126730000000    -0.197749   
N11      N      0.493380000000     0.494440000000     0.626730000000    -0.197804   
N12      N      0.493520000000     0.494020000000     0.863530000000    -0.197841   
N13      N      0.493960000000     0.996700000000     0.363850000000    -0.197717   
N14      N      0.493650000000     0.996410000000     0.127080000000    -0.197756   
N15      N      0.493930000000     0.990430000000     0.627050000000    -0.197665   
N16      N      0.493600000000     0.990730000000     0.863830000000    -0.197757   
N17      N      0.493830000000     0.862480000000     0.493190000000    -0.197873   
N18      N      0.493400000000     0.624660000000     0.493870000000    -0.197921   
N19      N      0.493870000000     0.124650000000     0.497640000000    -0.197889   
N20      N      0.493440000000     0.362470000000     0.496450000000    -0.197918   
N21      N      0.993510000000     0.494040000000     0.126900000000    -0.197817   
N22      N      0.993640000000     0.494480000000     0.363700000000    -0.197806   
N23      N      0.993650000000     0.492670000000     0.626900000000    -0.197864   
N24      N      0.993530000000     0.493110000000     0.863700000000    -0.197837   
N25      N      0.993020000000     0.990410000000     0.364100000000    -0.19771    
N26      N      0.993290000000     0.990710000000     0.127320000000    -0.197673   
N27      N      0.993340000000     0.996430000000     0.864080000000    -0.197674   
N28      N      0.993050000000     0.996740000000     0.627300000000    -0.197761   
N29      N      0.993110000000     0.862490000000     0.497920000000    -0.197927   
N30      N      0.993570000000     0.624680000000     0.496670000000    -0.197934   
N31      N      0.993630000000     0.362480000000     0.494020000000    -0.197901   
N32      N      0.993180000000     0.124660000000     0.493400000000    -0.197926   
Ni1      Ni     0.032790000000     0.993570000000     0.495700000000     1.00111    
Ni2      Ni     0.953470000000     0.993590000000     0.495710000000     1.00328    
Ni3      Ni     0.033300000000     0.493590000000     0.495300000000     1.00251    
Ni4      Ni     0.953980000000     0.493570000000     0.495300000000     1.00268    
Ni5      Ni     0.454200000000     0.993580000000     0.495450000000     1.00097    
Ni6      Ni     0.533510000000     0.993560000000     0.495450000000     1.00336    
Ni7      Ni     0.453730000000     0.493560000000     0.495130000000     1.00258    
Ni8      Ni     0.533040000000     0.493570000000     0.495130000000     1.00266    
Ni9      Ni     0.993490000000     0.953890000000     0.994620000000     1.00298    
Ni10     Ni     0.993490000000     0.033250000000     0.996780000000     1.0028     
Ni11     Ni     0.993510000000     0.453910000000     0.995440000000     1.00215    
Ni12     Ni     0.993520000000     0.533240000000     0.995160000000     1.0023     
Ni13     Ni     0.493440000000     0.953890000000     0.996530000000     1.00301    
Ni14     Ni     0.493440000000     0.033250000000     0.994380000000     1.00312    
Ni15     Ni     0.493530000000     0.453910000000     0.995000000000     1.00241    
Ni16     Ni     0.493520000000     0.533240000000     0.995260000000     1.00241    
O1       O      0.030160000000     0.997190000000     0.559780000000    -0.449319   
O2       O      0.030140000000     0.989940000000     0.431600000000    -0.449176   
O3       O      0.030180000000     0.057400000000     0.492070000000    -0.449374   
O4       O      0.030140000000     0.929730000000     0.499310000000    -0.44949    
O5       O      0.956080000000     0.929680000000     0.494850000000    -0.449997   
O6       O      0.956120000000     0.057500000000     0.496560000000    -0.449971   
O7       O      0.956080000000     0.994310000000     0.431560000000    -0.449988   
O8       O      0.956100000000     0.992870000000     0.559850000000    -0.4501     
O9       O      0.030670000000     0.495270000000     0.559430000000    -0.449938   
O10      O      0.030670000000     0.491910000000     0.431170000000    -0.449805   
O11      O      0.030640000000     0.557510000000     0.493590000000    -0.449611   
O12      O      0.030680000000     0.429680000000     0.497010000000    -0.449602   
O13      O      0.956620000000     0.429720000000     0.492430000000    -0.449902   
O14      O      0.956590000000     0.557420000000     0.498180000000    -0.450042   
O15      O      0.956610000000     0.496360000000     0.431200000000    -0.449829   
O16      O      0.956620000000     0.490780000000     0.559410000000    -0.449832   
O17      O      0.456840000000     0.997180000000     0.431360000000    -0.449284   
O18      O      0.456830000000     0.989960000000     0.559540000000    -0.449343   
O19      O      0.456840000000     0.057410000000     0.499050000000    -0.449633   
O20      O      0.456810000000     0.929740000000     0.491840000000    -0.4495     
O21      O      0.530870000000     0.929650000000     0.496320000000    -0.450052   
O22      O      0.530900000000     0.057470000000     0.494580000000    -0.450016   
O23      O      0.530890000000     0.994290000000     0.559600000000    -0.450079   
O24      O      0.530900000000     0.992820000000     0.431310000000    -0.450123   
O25      O      0.456360000000     0.491860000000     0.559260000000    -0.450021   
O26      O      0.456360000000     0.495250000000     0.431000000000    -0.450066   
O27      O      0.456380000000     0.429650000000     0.493410000000    -0.449788   
O28      O      0.456350000000     0.557470000000     0.496850000000    -0.449796   
O29      O      0.530400000000     0.557430000000     0.492270000000    -0.449981   
O30      O      0.530430000000     0.429720000000     0.497990000000    -0.449951   
O31      O      0.530410000000     0.490800000000     0.431020000000    -0.449867   
O32      O      0.530410000000     0.496340000000     0.559230000000    -0.449888   
O33      O      0.992500000000     0.957980000000     0.930690000000    -0.450993   
O34      O      0.994460000000     0.955000000000     0.058970000000    -0.448835   
O35      O      0.929590000000     0.956460000000     0.995160000000    -0.450119   
O36      O      0.057390000000     0.956530000000     0.993630000000    -0.450186   
O37      O      0.057390000000     0.030620000000     0.997790000000    -0.450009   
O38      O      0.929580000000     0.030680000000     0.996220000000    -0.449972   
O39      O      0.992470000000     0.029160000000     0.060720000000    -0.450784   
O40      O      0.994490000000     0.032140000000     0.932430000000    -0.448769   
O41      O      0.991290000000     0.456310000000     0.931310000000    -0.449864   
O42      O      0.995740000000     0.456770000000     0.059550000000    -0.449848   
O43      O      0.929630000000     0.456560000000     0.997710000000    -0.449856   
O44      O      0.057400000000     0.456530000000     0.993140000000    -0.449568   
O45      O      0.057400000000     0.530610000000     0.997460000000    -0.449678   
O46      O      0.929640000000     0.530610000000     0.992890000000    -0.449755   
O47      O      0.991290000000     0.530840000000     0.059290000000    -0.449805   
O48      O      0.995750000000     0.530380000000     0.931050000000    -0.449941   
O49      O      0.494460000000     0.957970000000     0.060460000000    -0.45086    
O50      O      0.492440000000     0.955010000000     0.932180000000    -0.448863   
O51      O      0.557340000000     0.956460000000     0.995960000000    -0.450122   
O52      O      0.429540000000     0.956530000000     0.997550000000    -0.450227   
O53      O      0.429540000000     0.030620000000     0.993400000000    -0.450198   
O54      O      0.557340000000     0.030680000000     0.994920000000    -0.450032   
O55      O      0.494440000000     0.029170000000     0.930440000000    -0.45082    
O56      O      0.492460000000     0.032130000000     0.058730000000    -0.448679   
O57      O      0.491310000000     0.456760000000     0.930880000000    -0.449775   
O58      O      0.495760000000     0.456320000000     0.059120000000    -0.44986    
O59      O      0.429650000000     0.456530000000     0.997290000000    -0.449825   
O60      O      0.557410000000     0.456560000000     0.992720000000    -0.449804   
O61      O      0.557410000000     0.530610000000     0.997530000000    -0.449673   
O62      O      0.429640000000     0.530610000000     0.992970000000    -0.449832   
O63      O      0.491300000000     0.530390000000     0.059370000000    -0.449799   
O64      O      0.495750000000     0.530830000000     0.931140000000    -0.449899   


