data_structure

_audit_creation_method RASPA-1.0
_audit_creation_date 2023-5-23
_audit_author_name 'Poobodin Mano'

_cell_length_a    29.8485
_cell_length_b    29.843
_cell_length_c    29.9662
_cell_angle_alpha 90
_cell_angle_beta  90
_cell_angle_gamma 89.997
_cell_volume      26693

_symmetry_cell_setting          triclinic
_symmetry_space_group_name_Hall 'P 1'
_symmetry_space_group_name_H-M  'P 1'
_symmetry_Int_Tables_number     1

_symmetry_equiv_pos_as_xyz 'x,y,z'

loop_
_atom_site_label
_atom_site_type_symbol
_atom_site_fract_x
_atom_site_fract_y
_atom_site_fract_z
_atom_site_charge
C1       C      0.998040000000     0.081100000000     0.993200000000     0.434184   
C2       C      0.993770000000     0.909800000000     0.992750000000     0.434256   
C3       C      0.081570000000     0.993580000000     0.993040000000     0.434342   
C4       C      0.910300000000     0.997320000000     0.992930000000     0.434402   
C5       C      0.997320000000     0.909850000000     0.494600000000     0.434507   
C6       C      0.992870000000     0.081180000000     0.492140000000     0.43439    
C7       C      0.909440000000     0.993570000000     0.493630000000     0.43439    
C8       C      0.080780000000     0.997460000000     0.493170000000     0.434422   
C9       C      0.997420000000     0.409780000000     0.994190000000     0.434493   
C10      C      0.993360000000     0.581110000000     0.993250000000     0.434573   
C11      C      0.995310000000     0.494920000000     0.908470000000     0.434704   
C12      C      0.995430000000     0.495970000000     0.079120000000     0.434768   
C13      C      0.997230000000     0.581170000000     0.495060000000     0.434294   
C14      C      0.993060000000     0.409840000000     0.492440000000     0.434437   
C15      C      0.995320000000     0.496650000000     0.408480000000     0.434766   
C16      C      0.995040000000     0.494350000000     0.579110000000     0.434667   
C17      C      0.496100000000     0.996150000000     0.078920000000     0.434378   
C18      C      0.495870000000     0.994940000000     0.908300000000     0.434313   
C19      C      0.410310000000     0.994740000000     0.993710000000     0.43427    
C20      C      0.581600000000     0.996350000000     0.993480000000     0.434443   
C21      C      0.494870000000     0.994750000000     0.578910000000     0.434465   
C22      C      0.495210000000     0.996270000000     0.408260000000     0.434522   
C23      C      0.580760000000     0.994620000000     0.493750000000     0.434372   
C24      C      0.409400000000     0.996400000000     0.493410000000     0.43442    
C25      C      0.506050000000     0.033280000000     0.792600000000    -0.0863257  
C26      C      0.495480000000     0.994270000000     0.768590000000     0.0345474  
C27      C      0.485240000000     0.955410000000     0.792980000000    -0.0862874  
C28      C      0.486250000000     0.956040000000     0.839590000000     0.0722138  
C29      C      0.505360000000     0.033050000000     0.839190000000     0.0724705  
C30      C      0.495080000000     0.994210000000     0.718630000000     0.0345052  
C31      C      0.485350000000     0.033380000000     0.694550000000    -0.0862797  
C32      C      0.486040000000     0.033060000000     0.647970000000     0.0724531  
C33      C      0.503460000000     0.955640000000     0.647680000000     0.0722413  
C34      C      0.504440000000     0.955070000000     0.694300000000    -0.0862099  
C35      C      0.485520000000     0.035620000000     0.194280000000    -0.0862412  
C36      C      0.496010000000     0.996810000000     0.218620000000     0.0345472  
C37      C      0.506770000000     0.957860000000     0.194600000000    -0.0864223  
C38      C      0.506030000000     0.958100000000     0.148010000000     0.0722903  
C39      C      0.486400000000     0.034990000000     0.147670000000     0.072361   
C40      C      0.495630000000     0.996840000000     0.268560000000     0.0345322  
C41      C      0.505260000000     0.035900000000     0.292890000000    -0.0861201  
C42      C      0.504270000000     0.035320000000     0.339510000000     0.0723016  
C43      C      0.486230000000     0.958030000000     0.339170000000     0.0723355  
C44      C      0.485630000000     0.957720000000     0.292600000000    -0.0864828  
C45      C      0.033840000000     0.483070000000     0.694570000000    -0.0862447  
C46      C      0.995040000000     0.493860000000     0.718810000000     0.0345413  
C47      C      0.956180000000     0.504590000000     0.694640000000    -0.0863302  
C48      C      0.956570000000     0.503780000000     0.648040000000     0.0723708  
C49      C      0.033400000000     0.484000000000     0.647980000000     0.0724881  
C50      C      0.995140000000     0.494040000000     0.768770000000     0.0346033  
C51      C      0.955900000000     0.485140000000     0.793080000000    -0.0864221  
C52      C      0.956420000000     0.486270000000     0.839670000000     0.0724853  
C53      C      0.034050000000     0.502620000000     0.839480000000     0.0725719  
C54      C      0.034440000000     0.503190000000     0.792880000000    -0.08628    
C55      C      0.956610000000     0.486000000000     0.194680000000    -0.0863264  
C56      C      0.995450000000     0.496900000000     0.218820000000     0.0345186  
C57      C      0.034280000000     0.507510000000     0.194540000000    -0.0862339  
C58      C      0.033860000000     0.506340000000     0.147950000000     0.0724489  
C59      C      0.957020000000     0.486560000000     0.148090000000     0.0723558  
C60      C      0.995470000000     0.497100000000     0.268780000000     0.0346123  
C61      C      0.956200000000     0.506220000000     0.292970000000    -0.0864309  
C62      C      0.956630000000     0.505320000000     0.339560000000     0.0725202  
C63      C      0.034240000000     0.488860000000     0.339590000000     0.0725222  
C64      C      0.034720000000     0.488060000000     0.293000000000    -0.0862585  
C65      C      0.196780000000     0.992160000000     0.453290000000    -0.0879197  
C66      C      0.220440000000     0.998220000000     0.493010000000     0.0346343  
C67      C      0.196810000000     0.004390000000     0.532730000000    -0.0877664  
C68      C      0.150020000000     0.003840000000     0.532240000000     0.0722445  
C69      C      0.149990000000     0.992590000000     0.453840000000     0.0721549  
C70      C      0.269740000000     0.997790000000     0.493060000000     0.0347153  
C71      C      0.293000000000     0.957390000000     0.489320000000    -0.0879136  
C72      C      0.339790000000     0.957470000000     0.489880000000     0.0722256  
C73      C      0.340550000000     0.036710000000     0.496580000000     0.0723062  
C74      C      0.293760000000     0.037720000000     0.496920000000    -0.0877928  
C75      C      0.697140000000     0.033090000000     0.501460000000    -0.0876494  
C76      C      0.720430000000     0.993240000000     0.493930000000     0.0346139  
C77      C      0.696390000000     0.953850000000     0.486350000000    -0.0877812  
C78      C      0.649600000000     0.954790000000     0.486900000000     0.0721678  
C79      C      0.650350000000     0.033070000000     0.500820000000     0.0722978  
C80      C      0.769770000000     0.992820000000     0.493910000000     0.0349387  
C81      C      0.793490000000     0.998520000000     0.533660000000    -0.0881258  
C82      C      0.840280000000     0.998000000000     0.533070000000     0.0721867  
C83      C      0.840170000000     0.987650000000     0.454560000000     0.0723291  
C84      C      0.793380000000     0.987010000000     0.454120000000    -0.0879893  
C85      C      0.006250000000     0.794310000000     0.535450000000    -0.0879318  
C86      C      0.000200000000     0.770180000000     0.495990000000     0.0352148  
C87      C      0.993550000000     0.793380000000     0.456090000000    -0.0883589  
C88      C      0.993290000000     0.840140000000     0.456160000000     0.0723761  
C89      C      0.004880000000     0.841130000000     0.534510000000     0.0723002  
C90      C      0.999610000000     0.720840000000     0.496440000000     0.0344687  
C91      C      0.039080000000     0.696510000000     0.502720000000    -0.0874971  
C92      C      0.037830000000     0.649680000000     0.501780000000     0.0721654  
C93      C      0.959210000000     0.651090000000     0.490090000000     0.0723375  
C94      C      0.959440000000     0.697850000000     0.489910000000    -0.0879277  
C95      C      0.983830000000     0.197470000000     0.530450000000    -0.088      
C96      C      0.989940000000     0.220840000000     0.490570000000     0.0348591  
C97      C      0.996650000000     0.196870000000     0.451110000000    -0.0879473  
C98      C      0.996870000000     0.150060000000     0.452080000000     0.072085   
C99      C      0.985200000000     0.150700000000     0.530420000000     0.072265   
C100     C      0.990430000000     0.270180000000     0.490380000000     0.0347021  
C101     C      0.951010000000     0.294450000000     0.497160000000    -0.0877798  
C102     C      0.952330000000     0.341270000000     0.497150000000     0.0722001  
C103     C      0.030910000000     0.339990000000     0.485220000000     0.0724504  
C104     C      0.030600000000     0.293230000000     0.484060000000    -0.0878482  
C105     C      0.197650000000     0.001530000000     0.953970000000    -0.0876834  
C106     C      0.221250000000     0.992990000000     0.993300000000     0.0346543  
C107     C      0.197450000000     0.984290000000     0.032480000000    -0.0877088  
C108     C      0.150660000000     0.984990000000     0.031910000000     0.072316   
C109     C      0.150870000000     0.000860000000     0.954310000000     0.0723196  
C110     C      0.270630000000     0.993420000000     0.993490000000     0.0346563  
C111     C      0.294680000000     0.954340000000     0.002620000000    -0.0876632  
C112     C      0.341460000000     0.955230000000     0.002030000000     0.0722907  
C113     C      0.340770000000     0.032950000000     0.985300000000     0.0723887  
C114     C      0.293980000000     0.032960000000     0.984510000000    -0.0876508  
C115     C      0.794370000000     0.006390000000     0.032290000000    -0.0876483  
C116     C      0.770630000000     0.998020000000     0.993010000000     0.0346655  
C117     C      0.794260000000     0.989780000000     0.953650000000    -0.0878383  
C118     C      0.841050000000     0.990400000000     0.954050000000     0.0721763  
C119     C      0.841160000000     0.005660000000     0.031770000000     0.072428   
C120     C      0.721270000000     0.997630000000     0.993140000000     0.034645   
C121     C      0.697910000000     0.957960000000     0.984780000000    -0.0877807  
C122     C      0.651130000000     0.958000000000     0.985580000000     0.072239   
C123     C      0.650460000000     0.035980000000     0.001090000000     0.0724196  
C124     C      0.697250000000     0.036860000000     0.001640000000    -0.0876132  
C125     C      0.982810000000     0.793870000000     0.031740000000    -0.087742   
C126     C      0.990640000000     0.770140000000     0.992350000000     0.0347858  
C127     C      0.999150000000     0.793770000000     0.953040000000    -0.0880687  
C128     C      0.999410000000     0.840560000000     0.953630000000     0.0721895  
C129     C      0.984360000000     0.840660000000     0.031390000000     0.0722255  
C130     C      0.991060000000     0.720790000000     0.992450000000     0.0347263  
C131     C      0.951710000000     0.696560000000     0.999820000000    -0.0877459  
C132     C      0.952890000000     0.649730000000     0.999390000000     0.0720605  
C133     C      0.031270000000     0.650900000000     0.986120000000     0.0725279  
C134     C      0.031050000000     0.697650000000     0.985270000000    -0.0878598  
C135     C      0.959880000000     0.293150000000     0.986860000000    -0.0878755  
C136     C      0.999970000000     0.270120000000     0.993830000000     0.0344198  
C137     C      0.039290000000     0.294440000000     0.001030000000    -0.0874239  
C138     C      0.038000000000     0.341260000000     0.000560000000     0.072356   
C139     C      0.959570000000     0.339900000000     0.987640000000     0.0723362  
C140     C      0.000560000000     0.220760000000     0.993520000000     0.0351904  
C141     C      0.008380000000     0.196870000000     0.032810000000    -0.0879196  
C142     C      0.007060000000     0.150080000000     0.032210000000     0.0724889  
C143     C      0.992270000000     0.150510000000     0.954400000000     0.0723549  
C144     C      0.992300000000     0.197300000000     0.954060000000    -0.0882608  
H1       H      0.475780000000     0.924590000000     0.776480000000     0.050646   
H2       H      0.478080000000     0.925210000000     0.856930000000     0.0262161  
H3       H      0.513670000000     0.064030000000     0.856200000000     0.0261653  
H4       H      0.515450000000     0.063960000000     0.775820000000     0.0506288  
H5       H      0.476620000000     0.064300000000     0.711280000000     0.0505459  
H6       H      0.478410000000     0.064200000000     0.630940000000     0.0260899  
H7       H      0.510940000000     0.924620000000     0.630370000000     0.0261598  
H8       H      0.513210000000     0.924080000000     0.710860000000     0.050624   
H9       H      0.516320000000     0.927230000000     0.211400000000     0.0506578  
H10      H      0.514490000000     0.927170000000     0.130990000000     0.0262368  
H11      H      0.478020000000     0.065780000000     0.130350000000     0.0262634  
H12      H      0.475960000000     0.066380000000     0.210840000000     0.0507098  
H13      H      0.514220000000     0.066830000000     0.276310000000     0.0506627  
H14      H      0.511960000000     0.066270000000     0.356840000000     0.0262066  
H15      H      0.478360000000     0.926940000000     0.356190000000     0.0261443  
H16      H      0.476740000000     0.926880000000     0.275820000000     0.0506214  
H17      H      0.925530000000     0.514320000000     0.711300000000     0.0506345  
H18      H      0.925740000000     0.512330000000     0.630900000000     0.0261421  
H19      H      0.064220000000     0.475530000000     0.630760000000     0.026131   
H20      H      0.064520000000     0.473340000000     0.711180000000     0.0506153  
H21      H      0.924820000000     0.476690000000     0.776540000000     0.0505822  
H22      H      0.925270000000     0.479230000000     0.856930000000     0.0259704  
H23      H      0.065250000000     0.509860000000     0.856570000000     0.0259654  
H24      H      0.065480000000     0.511450000000     0.776160000000     0.0505903  
H25      H      0.064940000000     0.517320000000     0.211120000000     0.0506338  
H26      H      0.064680000000     0.514740000000     0.130710000000     0.0261524  
H27      H      0.926200000000     0.477930000000     0.130970000000     0.0261776  
H28      H      0.925950000000     0.476380000000     0.211380000000     0.0506545  
H29      H      0.925160000000     0.514620000000     0.276320000000     0.050593   
H30      H      0.925450000000     0.512470000000     0.356730000000     0.0259609  
H31      H      0.065390000000     0.481650000000     0.356780000000     0.0260166  
H32      H      0.065790000000     0.479680000000     0.276380000000     0.0505772  
H33      H      0.214410000000     0.009130000000     0.564000000000     0.053216   
H34      H      0.132830000000     0.008460000000     0.563780000000     0.0266019  
H35      H      0.132790000000     0.987830000000     0.422320000000     0.0265707  
H36      H      0.214360000000     0.987350000000     0.422020000000     0.0531936  
H37      H      0.275110000000     0.925950000000     0.486320000000     0.0531817  
H38      H      0.356670000000     0.925430000000     0.487070000000     0.0264559  
H39      H      0.358050000000     0.068410000000     0.499480000000     0.0264357  
H40      H      0.276470000000     0.069510000000     0.499850000000     0.0530835  
H41      H      0.713670000000     0.922470000000     0.480460000000     0.0529378  
H42      H      0.632100000000     0.923490000000     0.481100000000     0.0264757  
H43      H      0.633450000000     0.064700000000     0.506580000000     0.0264965  
H44      H      0.715000000000     0.064140000000     0.507370000000     0.0530262  
H45      H      0.775960000000     0.003030000000     0.565000000000     0.0532321  
H46      H      0.857520000000     0.002430000000     0.564610000000     0.0265415  
H47      H      0.857330000000     0.983350000000     0.422950000000     0.0263785  
H48      H      0.775750000000     0.982560000000     0.422820000000     0.053094   
H49      H      0.988700000000     0.775440000000     0.425030000000     0.0531922  
H50      H      0.988090000000     0.856920000000     0.424490000000     0.0264566  
H51      H      0.009360000000     0.858750000000     0.565830000000     0.0264864  
H52      H      0.011320000000     0.777090000000     0.566870000000     0.0531947  
H53      H      0.070710000000     0.713570000000     0.507760000000     0.0529505  
H54      H      0.069140000000     0.631870000000     0.506480000000     0.026426   
H55      H      0.927300000000     0.634510000000     0.485020000000     0.0264993  
H56      H      0.928360000000     0.715940000000     0.484940000000     0.0530566  
H57      H      0.001530000000     0.214220000000     0.419720000000     0.0532312  
H58      H      0.002100000000     0.132600000000     0.420790000000     0.0266554  
H59      H      0.980670000000     0.133760000000     0.562110000000     0.0264276  
H60      H      0.978710000000     0.215280000000     0.561540000000     0.0531155  
H61      H      0.919400000000     0.277340000000     0.502170000000     0.0529869  
H62      H      0.921060000000     0.359010000000     0.502390000000     0.0264322  
H63      H      0.062840000000     0.356650000000     0.480460000000     0.0264455  
H64      H      0.061670000000     0.275190000000     0.478850000000     0.0530937  
H65      H      0.214930000000     0.977620000000     0.063470000000     0.0528741  
H66      H      0.133370000000     0.978450000000     0.063050000000     0.0264527  
H67      H      0.133750000000     0.007500000000     0.923090000000     0.0265448  
H68      H      0.215280000000     0.008280000000     0.923080000000     0.0529111  
H69      H      0.277400000000     0.923190000000     0.009630000000     0.0527749  
H70      H      0.358960000000     0.924170000000     0.009000000000     0.0264757  
H71      H      0.357690000000     0.064340000000     0.978400000000     0.0264567  
H72      H      0.276160000000     0.063780000000     0.977420000000     0.0528589  
H73      H      0.776660000000     0.983290000000     0.922690000000     0.0529277  
H74      H      0.858200000000     0.983990000000     0.922810000000     0.0264999  
H75      H      0.858420000000     0.011940000000     0.062990000000     0.0264865  
H76      H      0.776860000000     0.012830000000     0.063310000000     0.052962   
H77      H      0.715730000000     0.927030000000     0.978170000000     0.0528955  
H78      H      0.634190000000     0.926510000000     0.979170000000     0.0264713  
H79      H      0.632980000000     0.067150000000     0.007590000000     0.0264711  
H80      H      0.714540000000     0.068100000000     0.008170000000     0.0528497  
H81      H      0.005380000000     0.776170000000     0.922030000000     0.0531487  
H82      H      0.006050000000     0.857720000000     0.922420000000     0.0266381  
H83      H      0.978490000000     0.857910000000     0.062680000000     0.0264662  
H84      H      0.976280000000     0.776340000000     0.062730000000     0.0529851  
H85      H      0.920220000000     0.713710000000     0.005440000000     0.0529466  
H86      H      0.921690000000     0.632020000000     0.005020000000     0.0264675  
H87      H      0.063050000000     0.634200000000     0.980650000000     0.0264089  
H88      H      0.062060000000     0.715640000000     0.979550000000     0.0529789  
H89      H      0.070850000000     0.277360000000     0.006490000000     0.0528753  
H90      H      0.069200000000     0.359040000000     0.006000000000     0.0264126  
H91      H      0.927730000000     0.356530000000     0.982280000000     0.0264295  
H92      H      0.928890000000     0.275090000000     0.981270000000     0.052949   
H93      H      0.014720000000     0.214280000000     0.063910000000     0.0531165  
H94      H      0.012910000000     0.132690000000     0.063440000000     0.0265222  
H95      H      0.985820000000     0.133490000000     0.923090000000     0.0264761  
H96      H      0.986120000000     0.215030000000     0.923120000000     0.0531007  
N1       N      0.495830000000     0.994670000000     0.862530000000    -0.197924   
N2       N      0.494770000000     0.994440000000     0.624680000000    -0.197907   
N3       N      0.496180000000     0.996430000000     0.124700000000    -0.197872   
N4       N      0.495230000000     0.996580000000     0.362490000000    -0.19791    
N5       N      0.994990000000     0.493990000000     0.624880000000    -0.197999   
N6       N      0.995260000000     0.494600000000     0.862710000000    -0.198065   
N7       N      0.995440000000     0.496290000000     0.124880000000    -0.198029   
N8       N      0.995400000000     0.497000000000     0.362710000000    -0.198021   
N9       N      0.126750000000     0.998050000000     0.493070000000    -0.197794   
N10      N      0.363420000000     0.996860000000     0.493300000000    -0.197733   
N11      N      0.626730000000     0.994160000000     0.493830000000    -0.197767   
N12      N      0.863470000000     0.992980000000     0.493760000000    -0.197759   
N13      N      0.998520000000     0.863880000000     0.495130000000    -0.197797   
N14      N      0.998150000000     0.627140000000     0.495660000000    -0.197745   
N15      N      0.991610000000     0.127140000000     0.491520000000    -0.197715   
N16      N      0.992050000000     0.363870000000     0.491580000000    -0.197768   
N17      N      0.127530000000     0.993050000000     0.993080000000    -0.197859   
N18      N      0.364350000000     0.994310000000     0.993690000000    -0.197836   
N19      N      0.864340000000     0.997880000000     0.992910000000    -0.197883   
N20      N      0.627560000000     0.996780000000     0.993390000000    -0.197874   
N21      N      0.992490000000     0.863840000000     0.992590000000    -0.197773   
N22      N      0.992450000000     0.627080000000     0.992900000000    -0.197805   
N23      N      0.998380000000     0.363820000000     0.994160000000    -0.197887   
N24      N      0.999170000000     0.127060000000     0.993270000000    -0.197883   
Ni1      Ni     0.995900000000     0.995350000000     0.032650000000     1.00159    
Ni2      Ni     0.995960000000     0.995550000000     0.953330000000     1.00328    
Ni3      Ni     0.995200000000     0.996190000000     0.533070000000     1.00215    
Ni4      Ni     0.995020000000     0.994840000000     0.453720000000     1.00337    
Ni5      Ni     0.955550000000     0.494340000000     0.993830000000     1.00314    
Ni6      Ni     0.035210000000     0.496550000000     0.993760000000     1.00343    
Ni7      Ni     0.034990000000     0.494360000000     0.493850000000     1.00284    
Ni8      Ni     0.955340000000     0.496640000000     0.493750000000     1.00335    
Ni9      Ni     0.495590000000     0.035360000000     0.993350000000     1.00241    
Ni10     Ni     0.496320000000     0.955730000000     0.993870000000     1.00213    
Ni11     Ni     0.494680000000     0.955670000000     0.493140000000     1.00277    
Ni12     Ni     0.495480000000     0.035350000000     0.494040000000     1.00279    
O1       O      0.999400000000     0.059450000000     0.030200000000    -0.449484   
O2       O      0.992390000000     0.931260000000     0.029860000000    -0.449534   
O3       O      0.059990000000     0.991900000000     0.030070000000    -0.449456   
O4       O      0.931830000000     0.998800000000     0.029990000000    -0.449743   
O5       O      0.931810000000     0.995040000000     0.955900000000    -0.450142   
O6       O      0.060110000000     0.996050000000     0.956000000000    -0.450105   
O7       O      0.996370000000     0.931380000000     0.955780000000    -0.450105   
O8       O      0.995530000000     0.059700000000     0.956110000000    -0.450003   
O9       O      0.997680000000     0.931920000000     0.531400000000    -0.449096   
O10      O      0.992700000000     0.060200000000     0.529530000000    -0.450305   
O11      O      0.931060000000     0.994110000000     0.530660000000    -0.449956   
O12      O      0.059310000000     0.998530000000     0.530280000000    -0.449917   
O13      O      0.059180000000     0.995560000000     0.456160000000    -0.449985   
O14      O      0.930860000000     0.993860000000     0.456470000000    -0.449917   
O15      O      0.994300000000     0.059110000000     0.455370000000    -0.449507   
O16      O      0.995750000000     0.930810000000     0.457250000000    -0.450942   
O17      O      0.959710000000     0.430400000000     0.993120000000    -0.451126   
O18      O      0.956640000000     0.558710000000     0.994510000000    -0.449087   
O19      O      0.958080000000     0.494600000000     0.929930000000    -0.450122   
O20      O      0.958240000000     0.493650000000     0.057730000000    -0.450096   
O21      O      0.032600000000     0.498010000000     0.057660000000    -0.449933   
O22      O      0.032570000000     0.495530000000     0.929860000000    -0.45002    
O23      O      0.031060000000     0.560470000000     0.992320000000    -0.451166   
O24      O      0.034140000000     0.432210000000     0.995170000000    -0.449103   
O25      O      0.033950000000     0.558720000000     0.495740000000    -0.448667   
O26      O      0.030790000000     0.430430000000     0.491920000000    -0.450851   
O27      O      0.032520000000     0.495840000000     0.429960000000    -0.450057   
O28      O      0.032250000000     0.492460000000     0.557720000000    -0.450064   
O29      O      0.957880000000     0.496730000000     0.557660000000    -0.450091   
O30      O      0.958040000000     0.496980000000     0.429840000000    -0.450081   
O31      O      0.956360000000     0.432280000000     0.493760000000    -0.449173   
O32      O      0.959520000000     0.560570000000     0.493730000000    -0.451185   
O33      O      0.493390000000     0.033160000000     0.057250000000    -0.449541   
O34      O      0.497870000000     0.032280000000     0.929500000000    -0.449721   
O35      O      0.431490000000     0.032100000000     0.991190000000    -0.449744   
O36      O      0.559740000000     0.033340000000     0.995540000000    -0.449792   
O37      O      0.560410000000     0.958970000000     0.991510000000    -0.449959   
O38      O      0.432180000000     0.957780000000     0.996200000000    -0.449832   
O39      O      0.493880000000     0.957890000000     0.929970000000    -0.449622   
O40      O      0.498710000000     0.958860000000     0.057720000000    -0.449778   
O41      O      0.496090000000     0.957690000000     0.557150000000    -0.449234   
O42      O      0.493320000000     0.958900000000     0.429360000000    -0.450677   
O43      O      0.558860000000     0.957650000000     0.491870000000    -0.449962   
O44      O      0.430550000000     0.958940000000     0.494120000000    -0.449956   
O45      O      0.431300000000     0.033410000000     0.492810000000    -0.449922   
O46      O      0.559600000000     0.032040000000     0.495550000000    -0.449809   
O47      O      0.497070000000     0.033300000000     0.430030000000    -0.44909    
O48      O      0.493800000000     0.032160000000     0.557820000000    -0.450489   


