data_structure

_audit_creation_method RASPA-1.0
_audit_creation_date 2023-5-19
_audit_author_name 'Poobodin Mano'

_cell_length_a    38.584
_cell_length_b    38.5413
_cell_length_c    38.5307
_cell_angle_alpha 90
_cell_angle_beta  90
_cell_angle_gamma 90
_cell_volume      57298.1

_symmetry_cell_setting          triclinic
_symmetry_space_group_name_Hall 'P 1'
_symmetry_space_group_name_H-M  'P 1'
_symmetry_Int_Tables_number     1

_symmetry_equiv_pos_as_xyz 'x,y,z'

loop_
_atom_site_label
_atom_site_type_symbol
_atom_site_fract_x
_atom_site_fract_y
_atom_site_fract_z
_atom_site_charge
C1       C      0.993990000000     0.056310000000     0.495290000000     0.436074   
C2       C      0.994180000000     0.923300000000     0.496740000000     0.434065   
C3       C      0.927410000000     0.989780000000     0.496060000000     0.436697   
C4       C      0.060330000000     0.990030000000     0.496580000000     0.437007   
C5       C      0.999270000000     0.556620000000     0.506140000000     0.43919    
C6       C      0.998500000000     0.424310000000     0.506610000000     0.432512   
C7       C      0.996540000000     0.492350000000     0.441090000000     0.438774   
C8       C      0.002690000000     0.490160000000     0.573440000000     0.434786   
C9       C      0.494260000000     0.990540000000     0.419950000000     0.437431   
C10      C      0.493230000000     0.990920000000     0.552940000000     0.437303   
C11      C      0.560110000000     0.990850000000     0.486620000000     0.434842   
C12      C      0.427540000000     0.990810000000     0.486090000000     0.435917   
C13      C      0.488970000000     0.006860000000     0.052800000000     0.436376   
C14      C      0.488070000000     0.007240000000     0.920150000000     0.436189   
C15      C      0.488060000000     0.073650000000     0.987060000000     0.437395   
C16      C      0.488550000000     0.940680000000     0.986600000000     0.437574   
C17      C      0.997830000000     0.501250000000     0.074440000000     0.433934   
C18      C      0.001120000000     0.498850000000     0.941600000000     0.433853   
C19      C      0.065990000000     0.499160000000     0.009630000000     0.436198   
C20      C      0.933260000000     0.500900000000     0.006190000000     0.434268   
C21      C      0.499250000000     0.440910000000     0.994160000000     0.435476   
C22      C      0.500050000000     0.573550000000     0.994260000000     0.435735   
C23      C      0.433320000000     0.507600000000     0.996560000000     0.434376   
C24      C      0.566040000000     0.506870000000     0.992140000000     0.436385   
C25      C      0.657610000000     0.507220000000     0.962380000000    -0.10721    
C26      C      0.879320000000     0.470810000000     0.005100000000     0.0747741  
C27      C      0.880160000000     0.532270000000     0.002890000000     0.0746886  
C28      C      0.843160000000     0.470780000000     0.003390000000    -0.0945709  
C29      C      0.766680000000     0.480300000000     0.020030000000    -0.0358967  
C30      C      0.730500000000     0.480930000000     0.018320000000    -0.0343447  
C31      C      0.786590000000     0.502680000000     0.999230000000    -0.00689748 
C32      C      0.844020000000     0.533170000000     0.001030000000    -0.0945655  
C33      C      0.713400000000     0.503850000000     0.995690000000    -0.00964238 
C34      C      0.655230000000     0.503220000000     0.024420000000    -0.0979678  
C35      C      0.733310000000     0.526110000000     0.974760000000    -0.0344022  
C36      C      0.619180000000     0.504190000000     0.022630000000     0.0747069  
C37      C      0.621270000000     0.508100000000     0.961090000000     0.105778   
C38      C      0.769490000000     0.525570000000     0.976560000000    -0.0358648  
C39      C      0.825050000000     0.502200000000     0.001230000000     0.0502991  
C40      C      0.674930000000     0.504720000000     0.994130000000     0.0561073  
C41      C      0.157750000000     0.470330000000     0.011850000000    -0.107334   
C42      C      0.381000000000     0.507480000000     0.029360000000     0.0748252  
C43      C      0.378540000000     0.507580000000     0.967890000000     0.074572   
C44      C      0.344880000000     0.507050000000     0.031300000000    -0.0946201  
C45      C      0.269690000000     0.484550000000     0.027000000000    -0.0358304  
C46      C      0.233540000000     0.483420000000     0.028590000000    -0.0343393  
C47      C      0.286550000000     0.505740000000     0.002550000000    -0.00673977 
C48      C      0.342330000000     0.507200000000     0.968900000000    -0.0943584  
C49      C      0.213330000000     0.503480000000     0.005800000000    -0.00950081 
C50      C      0.154950000000     0.532020000000     0.004380000000    -0.0976751  
C51      C      0.230160000000     0.524780000000     0.981430000000    -0.0344017  
C52      C      0.118880000000     0.530070000000     0.005760000000     0.0743788  
C53      C      0.121460000000     0.468890000000     0.013230000000     0.10616    
C54      C      0.266360000000     0.525850000000     0.979780000000    -0.0359267  
C55      C      0.325040000000     0.506780000000     0.000870000000     0.0502198  
C56      C      0.174850000000     0.501950000000     0.007300000000     0.0561407  
C57      C      0.461350000000     0.848430000000     0.990850000000    -0.107829   
C58      C      0.500480000000     0.627300000000     0.024800000000     0.0750943  
C59      C      0.500110000000     0.626960000000     0.963250000000     0.0753233  
C60      C      0.500250000000     0.663540000000     0.025040000000    -0.0947688  
C61      C      0.477110000000     0.738530000000     0.016010000000    -0.0358236  
C62      C      0.475460000000     0.774700000000     0.014970000000    -0.0342231  
C63      C      0.499100000000     0.720360000000     0.993330000000    -0.0069656  
C64      C      0.500050000000     0.663150000000     0.962560000000    -0.0949275  
C65      C      0.495880000000     0.793510000000     0.991340000000    -0.00990143 
C66      C      0.523260000000     0.852240000000     0.987120000000    -0.0982645  
C67      C      0.518230000000     0.775380000000     0.968970000000    -0.0343172  
C68      C      0.520510000000     0.888280000000     0.986010000000     0.0746211  
C69      C      0.459070000000     0.884690000000     0.989550000000     0.106203   
C70      C      0.519740000000     0.739180000000     0.969880000000    -0.0359718  
C71      C      0.499990000000     0.681880000000     0.993670000000     0.0506397  
C72      C      0.493510000000     0.831900000000     0.989760000000     0.0566294  
C73      C      0.460260000000     0.165670000000     0.992190000000    -0.107655   
C74      C      0.498510000000     0.387540000000     0.963100000000     0.0750142  
C75      C      0.499420000000     0.387110000000     0.024630000000     0.0748654  
C76      C      0.498190000000     0.351340000000     0.962360000000    -0.0950383  
C77      C      0.517590000000     0.275260000000     0.969260000000    -0.035945   
C78      C      0.516150000000     0.239060000000     0.968450000000    -0.0342103  
C79      C      0.497390000000     0.294080000000     0.993090000000    -0.00698638 
C80      C      0.498970000000     0.350880000000     0.024830000000    -0.0948872  
C81      C      0.494350000000     0.220900000000     0.991330000000    -0.00983527 
C82      C      0.522050000000     0.162360000000     0.986580000000    -0.0981767  
C83      C      0.474330000000     0.239700000000     0.015320000000    -0.0342631  
C84      C      0.519570000000     0.126290000000     0.985660000000     0.0746466  
C85      C      0.458240000000     0.129380000000     0.991140000000     0.106116   
C86      C      0.475880000000     0.275890000000     0.016230000000    -0.0358769  
C87      C      0.498320000000     0.332570000000     0.993460000000     0.0505382  
C88      C      0.492230000000     0.182480000000     0.990000000000     0.0565536  
C89      C      0.489720000000     0.964010000000     0.645380000000    -0.107589   
C90      C      0.457240000000     0.005710000000     0.866580000000     0.0750905  
C91      C      0.518670000000     0.007340000000     0.866520000000     0.0750908  
C92      C      0.456780000000     0.004650000000     0.830360000000    -0.0948647  
C93      C      0.465870000000     0.980400000000     0.755710000000    -0.0359554  
C94      C      0.466620000000     0.978200000000     0.719530000000    -0.0342726  
C95      C      0.488130000000     0.003270000000     0.773320000000    -0.00686902 
C96      C      0.519140000000     0.006450000000     0.830320000000    -0.0950307  
C97      C      0.489530000000     0.998930000000     0.700180000000    -0.00984533 
C98      C      0.492590000000     0.026010000000     0.641240000000    -0.0982584  
C99      C      0.511540000000     0.022050000000     0.717770000000    -0.0342975  
C100     C      0.493450000000     0.023100000000     0.605220000000     0.0747548  
C101     C      0.490720000000     0.961570000000     0.609090000000     0.106015   
C102     C      0.510900000000     0.024140000000     0.753960000000    -0.0360225  
C103     C      0.487980000000     0.004940000000     0.811800000000     0.0505906  
C104     C      0.490600000000     0.996300000000     0.661770000000     0.0564893  
C105     C      0.496270000000     0.962960000000     0.327740000000    -0.107774   
C106     C      0.520290000000     0.005760000000     0.105990000000     0.0752453  
C107     C      0.458840000000     0.005740000000     0.106750000000     0.0750936  
C108     C      0.521220000000     0.004400000000     0.142160000000    -0.0950731  
C109     C      0.467730000000     0.021250000000     0.219590000000    -0.0359572  
C110     C      0.468360000000     0.019210000000     0.255790000000    -0.0341576  
C111     C      0.490840000000     0.001440000000     0.199540000000    -0.00682028 
C112     C      0.458830000000     0.004430000000     0.142960000000    -0.0949587  
C113     C      0.492030000000     0.997230000000     0.272680000000    -0.00982669 
C114     C      0.490040000000     0.024760000000     0.331450000000    -0.0982668  
C115     C      0.515120000000     0.977410000000     0.252610000000    -0.0341648  
C116     C      0.490920000000     0.022210000000     0.367500000000     0.0749634  
C117     C      0.497120000000     0.960910000000     0.364040000000     0.106254   
C118     C      0.514540000000     0.979500000000     0.216450000000    -0.0359744  
C119     C      0.490270000000     0.003560000000     0.161090000000     0.0506609  
C120     C      0.492690000000     0.994960000000     0.311120000000     0.056608   
C121     C      0.035110000000     0.489170000000     0.664160000000    -0.107142   
C122     C      0.002180000000     0.467010000000     0.888590000000     0.0744965  
C123     C      0.002010000000     0.528490000000     0.887280000000     0.074288   
C124     C      0.002770000000     0.465760000000     0.852360000000    -0.0944755  
C125     C      0.024540000000     0.471970000000     0.776710000000    -0.0359938  
C126     C      0.024870000000     0.471030000000     0.740440000000    -0.0343524  
C127     C      0.003290000000     0.495680000000     0.794490000000    -0.00666112 
C128     C      0.002430000000     0.528180000000     0.851010000000    -0.0943742  
C129     C      0.003830000000     0.493670000000     0.721090000000    -0.00948731 
C130     C      0.973200000000     0.494490000000     0.663730000000    -0.097929   
C131     C      0.982550000000     0.517360000000     0.738850000000    -0.0344386  
C132     C      0.973810000000     0.493210000000     0.627560000000     0.0740005  
C133     C      0.035200000000     0.487990000000     0.627760000000     0.105665   
C134     C      0.982350000000     0.518420000000     0.775130000000    -0.0361017  
C135     C      0.002850000000     0.496570000000     0.833080000000     0.0499531  
C136     C      0.004050000000     0.492530000000     0.682500000000     0.0559278  
C137     C      0.981810000000     0.527630000000     0.354180000000    -0.105349   
C138     C      0.999160000000     0.471380000000     0.128520000000     0.074608   
C139     C      0.993040000000     0.532530000000     0.127660000000     0.0743543  
C140     C      0.998110000000     0.471300000000     0.164750000000    -0.0938336  
C141     C      0.977350000000     0.474760000000     0.239990000000    -0.0355369  
C142     C      0.977340000000     0.474050000000     0.276240000000    -0.0347473  
C143     C      0.992430000000     0.502650000000     0.221830000000    -0.00662841 
C144     C      0.991330000000     0.533330000000     0.163920000000    -0.0935204  
C145     C      0.991810000000     0.501490000000     0.295300000000    -0.00920658 
C146     C      0.006670000000     0.470370000000     0.350110000000    -0.0978807  
C147     C      0.006030000000     0.529850000000     0.277420000000    -0.0345881  
C148     C      0.008240000000     0.468990000000     0.386230000000     0.0793665  
C149     C      0.983260000000     0.525330000000     0.390490000000     0.1059     
C150     C      0.006580000000     0.530320000000     0.241090000000    -0.0353704  
C151     C      0.993910000000     0.502470000000     0.183070000000     0.0496728  
C152     C      0.993120000000     0.499780000000     0.333710000000     0.0557909  
C153     C      0.152280000000     0.992720000000     0.524730000000    -0.107506   
C154     C      0.373920000000     0.960110000000     0.485740000000     0.0752271  
C155     C      0.374040000000     0.021630000000     0.486470000000     0.0750922  
C156     C      0.337730000000     0.959710000000     0.486060000000    -0.0945154  
C157     C      0.261500000000     0.968030000000     0.467250000000    -0.0359008  
C158     C      0.225290000000     0.967990000000     0.468600000000    -0.0342703  
C159     C      0.280770000000     0.991080000000     0.487930000000    -0.00682038 
C160     C      0.337860000000     0.022160000000     0.486920000000    -0.0947123  
C161     C      0.207590000000     0.990870000000     0.490800000000    -0.00967797 
C162     C      0.149060000000     0.988080000000     0.462770000000    -0.0978437  
C163     C      0.226870000000     0.013990000000     0.511380000000    -0.0342362  
C164     C      0.112990000000     0.988100000000     0.465130000000     0.0746682  
C165     C      0.116000000000     0.992630000000     0.526610000000     0.106254   
C166     C      0.263030000000     0.014120000000     0.509930000000    -0.0357755  
C167     C      0.319250000000     0.990970000000     0.486810000000     0.0504956  
C168     C      0.169150000000     0.990490000000     0.492750000000     0.0564374  
C169     C      0.835330000000     0.992760000000     0.523750000000    -0.107672   
C170     C      0.613770000000     0.960220000000     0.486150000000     0.0743015  
C171     C      0.613580000000     0.021730000000     0.486670000000     0.0746401  
C172     C      0.649970000000     0.959870000000     0.486100000000    -0.0947467  
C173     C      0.726060000000     0.968170000000     0.466570000000    -0.0360333  
C174     C      0.762290000000     0.968120000000     0.467690000000    -0.034445   
C175     C      0.706920000000     0.991320000000     0.487270000000    -0.00696704 
C176     C      0.649760000000     0.022310000000     0.486740000000    -0.0947346  
C177     C      0.780140000000     0.991080000000     0.489690000000    -0.00976497 
C178     C      0.838800000000     0.987790000000     0.461830000000    -0.0979798  
C179     C      0.760990000000     0.014370000000     0.510200000000    -0.0343919  
C180     C      0.874870000000     0.987680000000     0.464350000000     0.074238   
C181     C      0.871590000000     0.992540000000     0.525790000000     0.106028   
C182     C      0.724820000000     0.014510000000     0.508980000000    -0.0358739  
C183     C      0.668430000000     0.991160000000     0.486530000000     0.0501307  
C184     C      0.818590000000     0.990490000000     0.491710000000     0.0562455  
C185     C      0.010310000000     0.644380000000     0.471790000000    -0.105318   
C186     C      0.991760000000     0.869810000000     0.527680000000     0.0742832  
C187     C      0.998520000000     0.869510000000     0.466580000000     0.0743     
C188     C      0.992370000000     0.833560000000     0.528380000000    -0.0939778  
C189     C      0.012740000000     0.757970000000     0.525870000000    -0.0353875  
C190     C      0.013170000000     0.721710000000     0.526530000000    -0.0347059  
C191     C      0.997740000000     0.775960000000     0.497830000000    -0.00682281 
C192     C      0.999770000000     0.833280000000     0.466390000000    -0.0941072  
C193     C      0.999130000000     0.702540000000     0.498930000000    -0.0091476  
C194     C      0.986390000000     0.646880000000     0.529570000000    -0.0980666  
C195     C      0.984640000000     0.720290000000     0.470630000000    -0.0347904  
C196     C      0.985970000000     0.610720000000     0.530450000000     0.0794387  
C197     C      0.009970000000     0.608040000000     0.473560000000     0.106223   
C198     C      0.983710000000     0.756570000000     0.470190000000    -0.0354956  
C199     C      0.996610000000     0.814690000000     0.497530000000     0.0496782  
C200     C      0.998920000000     0.664090000000     0.500160000000     0.0558909  
C201     C      0.997390000000     0.148300000000     0.466780000000    -0.107075   
C202     C      0.028460000000     0.370230000000     0.506200000000     0.0741571  
C203     C      0.967040000000     0.371070000000     0.505770000000     0.0740151  
C204     C      0.028450000000     0.334000000000     0.505400000000    -0.0945127  
C205     C      0.019680000000     0.259190000000     0.481820000000    -0.0358493  
C206     C      0.019090000000     0.222970000000     0.480290000000    -0.0342957  
C207     C      0.996550000000     0.277250000000     0.503470000000    -0.006908   
C208     C      0.966090000000     0.334820000000     0.505120000000    -0.0943189  
C209     C      0.995450000000     0.203910000000     0.500490000000    -0.00961782 
C210     C      0.991740000000     0.145360000000     0.528650000000    -0.0974561  
C211     C      0.972450000000     0.221930000000     0.522300000000    -0.0344234  
C212     C      0.991650000000     0.109230000000     0.526450000000     0.0745245  
C213     C      0.997150000000     0.111950000000     0.465060000000     0.105869   
C214     C      0.972920000000     0.258200000000     0.523700000000    -0.0359984  
C215     C      0.997030000000     0.315810000000     0.504790000000     0.0497437  
C216     C      0.994760000000     0.165370000000     0.498650000000     0.0560129  
H1       H      0.893760000000     0.556890000000     0.002710000000     0.0254015  
H2       H      0.605480000000     0.502920000000     0.047170000000     0.0263791  
H3       H      0.784080000000     0.542890000000     0.959930000000     0.0376569  
H4       H      0.715910000000     0.463230000000     0.034550000000     0.0371813  
H5       H      0.667590000000     0.501750000000     0.049620000000     0.0537792  
H6       H      0.779040000000     0.462580000000     0.037990000000     0.037692   
H7       H      0.672390000000     0.508140000000     0.938460000000     0.0577995  
H8       H      0.831040000000     0.558060000000     0.999860000000     0.0528275  
H9       H      0.829530000000     0.446210000000     0.003240000000     0.0528346  
H10      H      0.720920000000     0.544300000000     0.957300000000     0.0375497  
H11      H      0.892260000000     0.445880000000     0.006540000000     0.0254469  
H12      H      0.597520000000     0.479540000000     0.905680000000     0.0388076  
H13      H      0.390840000000     0.507660000000     0.942590000000     0.0254526  
H14      H      0.104930000000     0.554350000000     0.003120000000     0.026252   
H15      H      0.278530000000     0.542710000000     0.960880000000     0.0376626  
H16      H      0.221400000000     0.467020000000     0.047910000000     0.0375541  
H17      H      0.167150000000     0.557150000000     0.001340000000     0.0536813  
H18      H      0.284450000000     0.468460000000     0.044680000000     0.037712   
H19      H      0.172640000000     0.446580000000     0.014070000000     0.0579104  
H20      H      0.328020000000     0.506630000000     0.944720000000     0.0528272  
H21      H      0.332600000000     0.507250000000     0.056580000000     0.0528583  
H22      H      0.215350000000     0.540310000000     0.963300000000     0.0372203  
H23      H      0.395250000000     0.507680000000     0.053610000000     0.0254966  
H24      H      0.097700000000     0.411190000000     0.989620000000     0.0391003  
H25      H      0.499930000000     0.613530000000     0.938530000000     0.0258064  
H26      H      0.544620000000     0.902610000000     0.984140000000     0.0261596  
H27      H      0.537190000000     0.725910000000     0.952310000000     0.0377963  
H28      H      0.458260000000     0.787990000000     0.032790000000     0.0377588  
H29      H      0.548730000000     0.840430000000     0.986430000000     0.0537635  
H30      H      0.460680000000     0.724740000000     0.034160000000     0.0379063  
H31      H      0.437860000000     0.833050000000     0.992360000000     0.0581507  
H32      H      0.499440000000     0.676340000000     0.937740000000     0.0531256  
H33      H      0.500580000000     0.677070000000     0.049680000000     0.0530668  
H34      H      0.534100000000     0.789160000000     0.950320000000     0.0371662  
H35      H      0.500710000000     0.614130000000     0.049660000000     0.0253964  
H36      H      0.403810000000     0.904960000000     0.958240000000     0.0385757  
H37      H      0.499980000000     0.400260000000     0.049500000000     0.0251887  
H38      H      0.543720000000     0.112150000000     0.983040000000     0.0261261  
H39      H      0.459780000000     0.289660000000     0.034680000000     0.0376816  
H40      H      0.531700000000     0.225300000000     0.949510000000     0.0372099  
H41      H      0.547400000000     0.174360000000     0.985100000000     0.0536527  
H42      H      0.534680000000     0.288530000000     0.951330000000     0.0375761  
H43      H      0.436690000000     0.180840000000     0.994460000000     0.0581337  
H44      H      0.499480000000     0.337330000000     0.049460000000     0.052812   
H45      H      0.497250000000     0.338200000000     0.937530000000     0.0529833  
H46      H      0.457580000000     0.226410000000     0.033540000000     0.0370856  
H47      H      0.498200000000     0.400990000000     0.938390000000     0.0252306  
H48      H      0.408690000000     0.106520000000     0.029450000000     0.0380978  
H49      H      0.543440000000     0.008240000000     0.879780000000     0.0252573  
H50      H      0.494880000000     0.047210000000     0.590790000000     0.0262078  
H51      H      0.528120000000     0.042260000000     0.766770000000     0.0376484  
H52      H      0.449090000000     0.960400000000     0.706670000000     0.0376845  
H53      H      0.493000000000     0.051580000000     0.652910000000     0.0537424  
H54      H      0.448260000000     0.963760000000     0.769920000000     0.0377816  
H55      H      0.488650000000     0.940540000000     0.660870000000     0.0580395  
H56      H      0.543860000000     0.006320000000     0.816990000000     0.0528663  
H57      H      0.432090000000     0.003900000000     0.816990000000     0.0530577  
H58      H      0.529660000000     0.038170000000     0.703590000000     0.0370663  
H59      H      0.432500000000     0.005430000000     0.879930000000     0.0254867  
H60      H      0.522380000000     0.906510000000     0.588730000000     0.0387071  
H61      H      0.433920000000     0.006090000000     0.093730000000     0.0253462  
H62      H      0.488640000000     0.046340000000     0.381790000000     0.0261729  
H63      H      0.532430000000     0.963630000000     0.201720000000     0.037765   
H64      H      0.450050000000     0.034580000000     0.270540000000     0.0372669  
H65      H      0.487700000000     0.050140000000     0.319590000000     0.0537382  
H66      H      0.449380000000     0.038630000000     0.207330000000     0.0375118  
H67      H      0.498190000000     0.939430000000     0.312440000000     0.0581642  
H68      H      0.434300000000     0.003470000000     0.156590000000     0.052989   
H69      H      0.546100000000     0.004290000000     0.155180000000     0.0529434  
H70      H      0.533910000000     0.960500000000     0.264870000000     0.0369787  
H71      H      0.544890000000     0.006330000000     0.092410000000     0.025388   
H72      H      0.538010000000     0.912510000000     0.384840000000     0.0378232  
H73      H      0.001800000000     0.553550000000     0.900060000000     0.025267   
H74      H      0.948960000000     0.495050000000     0.614540000000     0.0261319  
H75      H      0.965430000000     0.536770000000     0.788030000000     0.0375926  
H76      H      0.041310000000     0.452240000000     0.727560000000     0.0370782  
H77      H      0.948500000000     0.496620000000     0.676910000000     0.0535773  
H78      H      0.041220000000     0.454320000000     0.790840000000     0.0376217  
H79      H      0.059430000000     0.487640000000     0.678180000000     0.0580025  
H80      H      0.002880000000     0.552620000000     0.837140000000     0.0527081  
H81      H      0.002670000000     0.440740000000     0.839560000000     0.0527506  
H82      H      0.966260000000     0.535350000000     0.724690000000     0.0370868  
H83      H      0.001980000000     0.442500000000     0.902400000000     0.0252792  
H84      H      0.082380000000     0.446820000000     0.604870000000     0.0376759  
H85      H      0.990820000000     0.557010000000     0.113970000000     0.0253843  
H86      H      0.018780000000     0.445820000000     0.398280000000     0.0181577  
H87      H      0.018910000000     0.552010000000     0.228210000000     0.0373852  
H88      H      0.965840000000     0.452060000000     0.289450000000     0.0380517  
H89      H      0.016380000000     0.448690000000     0.335070000000     0.054514   
H90      H      0.965390000000     0.453380000000     0.226260000000     0.0372842  
H91      H      0.972310000000     0.551130000000     0.341980000000     0.0585988  
H92      H      0.987520000000     0.558050000000     0.176710000000     0.0522293  
H93      H      0.001060000000     0.446820000000     0.178200000000     0.0524823  
H94      H      0.017670000000     0.551180000000     0.291540000000     0.0381139  
H95      H      0.002440000000     0.446610000000     0.115600000000     0.0258859  
H96      H      0.948750000000     0.557630000000     0.439120000000     0.0494702  
H97      H      0.387360000000     0.046390000000     0.486580000000     0.0253793  
H98      H      0.098890000000     0.986220000000     0.440860000000     0.0265233  
H99      H      0.277120000000     0.031970000000     0.526430000000     0.037902   
H100     H      0.211170000000     0.949690000000     0.452620000000     0.0372889  
H101     H      0.161100000000     0.986660000000     0.437410000000     0.0538388  
H102     H      0.274400000000     0.950190000000     0.449790000000     0.0378835  
H103     H      0.167390000000     0.994220000000     0.548410000000     0.058108   
H104     H      0.324590000000     0.046920000000     0.487040000000     0.0529783  
H105     H      0.324350000000     0.935010000000     0.486340000000     0.0532706  
H106     H      0.213970000000     0.032190000000     0.528470000000     0.0377643  
H107     H      0.387170000000     0.935310000000     0.485410000000     0.0262237  
H108     H      0.094030000000     0.963880000000     0.582660000000     0.0388672  
H109     H      0.600230000000     0.046480000000     0.486810000000     0.0253208  
H110     H      0.889100000000     0.985630000000     0.440160000000     0.0259535  
H111     H      0.710850000000     0.032450000000     0.525490000000     0.0376068  
H112     H      0.776310000000     0.949710000000     0.451760000000     0.0370819  
H113     H      0.826850000000     0.986260000000     0.436440000000     0.0535541  
H114     H      0.713040000000     0.950230000000     0.449320000000     0.0374586  
H115     H      0.820130000000     0.994410000000     0.547360000000     0.0579459  
H116     H      0.662990000000     0.047100000000     0.486650000000     0.0527832  
H117     H      0.663380000000     0.935180000000     0.486330000000     0.0525966  
H118     H      0.773990000000     0.032650000000     0.527130000000     0.0375152  
H119     H      0.600540000000     0.935400000000     0.486020000000     0.0248581  
H120     H      0.893100000000     0.963760000000     0.582020000000     0.0385989  
H121     H      0.001200000000     0.882700000000     0.441870000000     0.0253526  
H122     H      0.976300000000     0.598020000000     0.553660000000     0.0183195  
H123     H      0.971360000000     0.769330000000     0.448430000000     0.037143   
H124     H      0.024830000000     0.708620000000     0.548500000000     0.0381459  
H125     H      0.976640000000     0.661300000000     0.551640000000     0.0543905  
H126     H      0.024510000000     0.771830000000     0.547280000000     0.0372453  
H127     H      0.018990000000     0.657170000000     0.448290000000     0.0586573  
H128     H      0.003720000000     0.820050000000     0.441930000000     0.0523438  
H129     H      0.989080000000     0.820520000000     0.553050000000     0.0520273  
H130     H      0.973260000000     0.706090000000     0.449210000000     0.0379131  
H131     H      0.988450000000     0.883240000000     0.552190000000     0.0247826  
H132     H      0.045090000000     0.561050000000     0.439470000000     0.0497383  
H133     H      0.942470000000     0.384710000000     0.505770000000     0.0255447  
H134     H      0.989290000000     0.095210000000     0.550740000000     0.0269439  
H135     H      0.954980000000     0.271310000000     0.540880000000     0.0376761  
H136     H      0.037390000000     0.209850000000     0.463490000000     0.0376981  
H137     H      0.989970000000     0.157520000000     0.553940000000     0.0538073  
H138     H      0.037980000000     0.273090000000     0.465670000000     0.0376425  
H139     H      0.999400000000     0.163320000000     0.443060000000     0.0578492  
H140     H      0.941220000000     0.321820000000     0.504300000000     0.0528033  
H141     H      0.052970000000     0.320320000000     0.505610000000     0.0527003  
H142     H      0.953760000000     0.208010000000     0.537980000000     0.037258   
H143     H      0.053400000000     0.383190000000     0.506700000000     0.0252637  
H144     H      0.969420000000     0.089750000000     0.408580000000     0.0388311  
N1       N      0.601850000000     0.506450000000     0.991430000000    -0.201506   
N2       N      0.897720000000     0.501320000000     0.004800000000    -0.198878   
N3       N      0.101810000000     0.498900000000     0.009740000000    -0.20139    
N4       N      0.397760000000     0.507600000000     0.997900000000    -0.198793   
N5       N      0.488870000000     0.904850000000     0.987300000000    -0.201847   
N6       N      0.500250000000     0.609140000000     0.994130000000    -0.199234   
N7       N      0.488120000000     0.109480000000     0.987900000000    -0.201781   
N8       N      0.499080000000     0.405320000000     0.993990000000    -0.199375   
N9       N      0.492520000000     0.991340000000     0.588790000000    -0.201721   
N10      N      0.487960000000     0.006860000000     0.884550000000    -0.199392   
N11      N      0.494200000000     0.990720000000     0.384120000000    -0.202018   
N12      N      0.489340000000     0.006220000000     0.088380000000    -0.199559   
N13      N      0.004380000000     0.490340000000     0.609270000000    -0.201172   
N14      N      0.001800000000     0.498130000000     0.905970000000    -0.198653   
N15      N      0.995470000000     0.495550000000     0.406000000000    -0.206016   
N16      N      0.996720000000     0.501760000000     0.110060000000    -0.198464   
N17      N      0.096140000000     0.990280000000     0.496600000000    -0.201536   
N18      N      0.391970000000     0.990840000000     0.486060000000    -0.199006   
N19      N      0.891590000000     0.990010000000     0.495870000000    -0.201577   
N20      N      0.595680000000     0.990920000000     0.486500000000    -0.199161   
N21      N      0.998880000000     0.591750000000     0.503370000000    -0.206053   
N22      N      0.994760000000     0.887680000000     0.497010000000    -0.19883    
N23      N      0.994260000000     0.092190000000     0.495100000000    -0.201036   
N24      N      0.998000000000     0.388680000000     0.506230000000    -0.198549   
Ni1      Ni     0.994030000000     0.989380000000     0.465380000000     0.999155   
Ni2      Ni     0.993720000000     0.990060000000     0.526860000000     1.00438    
Ni3      Ni     0.029950000000     0.490160000000     0.505250000000     1.0025     
Ni4      Ni     0.968490000000     0.491190000000     0.508760000000     0.998513   
Ni5      Ni     0.493800000000     0.021600000000     0.486350000000     1.00435    
Ni6      Ni     0.493830000000     0.960040000000     0.486510000000     1.00557    
Ni7      Ni     0.519200000000     0.007290000000     0.986260000000     1.00457    
Ni8      Ni     0.457710000000     0.007050000000     0.986710000000     1.00724    
Ni9      Ni     0.999170000000     0.469290000000     0.008560000000     1.00394    
Ni10     Ni     0.999910000000     0.530900000000     0.007470000000     0.997843   
Ni11     Ni     0.500590000000     0.507200000000     0.025110000000     1.00364    
Ni12     Ni     0.498600000000     0.507260000000     0.963490000000     1.00427    
O1       O      0.993800000000     0.039070000000     0.466880000000    -0.447941   
O2       O      0.994460000000     0.939730000000     0.467770000000    -0.450201   
O3       O      0.944280000000     0.989140000000     0.467280000000    -0.449148   
O4       O      0.043700000000     0.989700000000     0.467670000000    -0.448873   
O5       O      0.043280000000     0.990000000000     0.525070000000    -0.449777   
O6       O      0.944230000000     0.990160000000     0.524670000000    -0.450447   
O7       O      0.993590000000     0.940270000000     0.525420000000    -0.449575   
O8       O      0.993820000000     0.039800000000     0.524280000000    -0.448224   
O9       O      0.027820000000     0.539950000000     0.502320000000    -0.449401   
O10      O      0.027540000000     0.440570000000     0.507470000000    -0.44909    
O11      O      0.025790000000     0.487770000000     0.455970000000    -0.453256   
O12      O      0.030260000000     0.492300000000     0.555010000000    -0.447472   
O13      O      0.973100000000     0.488500000000     0.558210000000    -0.448786   
O14      O      0.968520000000     0.494810000000     0.458910000000    -0.449159   
O15      O      0.969950000000     0.441450000000     0.505970000000    -0.449105   
O16      O      0.970810000000     0.540550000000     0.511670000000    -0.452899   
O17      O      0.493980000000     0.019370000000     0.436700000000    -0.451776   
O18      O      0.493570000000     0.019650000000     0.536020000000    -0.451643   
O19      O      0.543410000000     0.019660000000     0.486530000000    -0.451117   
O20      O      0.444200000000     0.019620000000     0.486170000000    -0.451277   
O21      O      0.444190000000     0.961980000000     0.486170000000    -0.449424   
O22      O      0.543470000000     0.962010000000     0.486770000000    -0.451011   
O23      O      0.493440000000     0.962250000000     0.536160000000    -0.449447   
O24      O      0.494150000000     0.961960000000     0.436890000000    -0.449523   
O25      O      0.517610000000     0.007050000000     0.035880000000    -0.452318   
O26      O      0.516930000000     0.007480000000     0.936670000000    -0.452504   
O27      O      0.516900000000     0.056980000000     0.986530000000    -0.451173   
O28      O      0.517270000000     0.957580000000     0.986120000000    -0.451036   
O29      O      0.459940000000     0.957480000000     0.986700000000    -0.450517   
O30      O      0.459560000000     0.056650000000     0.986880000000    -0.450112   
O31      O      0.459350000000     0.007090000000     0.936980000000    -0.450467   
O32      O      0.460030000000     0.006940000000     0.036380000000    -0.450989   
O33      O      0.998260000000     0.472160000000     0.058210000000    -0.449732   
O34      O      0.000240000000     0.470350000000     0.958830000000    -0.450168   
O35      O      0.048770000000     0.470760000000     0.009530000000    -0.449087   
O36      O      0.949560000000     0.471880000000     0.007440000000    -0.450265   
O37      O      0.950280000000     0.529530000000     0.006010000000    -0.449633   
O38      O      0.049550000000     0.528170000000     0.008870000000    -0.449325   
O39      O      0.001260000000     0.527990000000     0.957760000000    -0.448813   
O40      O      0.998320000000     0.529810000000     0.057270000000    -0.448233   
O41      O      0.500220000000     0.457500000000     0.023050000000    -0.45052    
O42      O      0.500820000000     0.556910000000     0.023120000000    -0.450314   
O43      O      0.450980000000     0.507500000000     0.024790000000    -0.451185   
O44      O      0.550090000000     0.506880000000     0.021410000000    -0.451349   
O45      O      0.548320000000     0.506970000000     0.964010000000    -0.447814   
O46      O      0.448980000000     0.507550000000     0.967140000000    -0.449369   
O47      O      0.499010000000     0.556850000000     0.965470000000    -0.451481   
O48      O      0.498410000000     0.457670000000     0.965400000000    -0.452277   
S1       S      0.603230000000     0.511980000000     0.919070000000    -0.0422684  
S2       S      0.103790000000     0.427200000000     0.020780000000    -0.0423941  
S3       S      0.416480000000     0.901640000000     0.991290000000    -0.0415785  
S4       S      0.415970000000     0.112030000000     0.995080000000    -0.0412361  
S5       S      0.489280000000     0.918880000000     0.592270000000    -0.0414965  
S6       S      0.503240000000     0.918760000000     0.381170000000    -0.0412693  
S7       S      0.076280000000     0.481670000000     0.608380000000    -0.0411239  
S8       S      0.974060000000     0.563240000000     0.414830000000    -0.0490348  
S9       S      0.098640000000     0.996350000000     0.568950000000    -0.0415604  
S10      S      0.888710000000     0.996240000000     0.568230000000    -0.0421779  
S11      S      0.018840000000     0.584560000000     0.435030000000    -0.0486189  
S12      S      0.001610000000     0.094340000000     0.422890000000    -0.0416027  


