data_structure

_audit_creation_method RASPA-1.0
_audit_creation_date 2023-5-19
_audit_author_name 'Poobodin Mano'

_cell_length_a    38.5415
_cell_length_b    38.5417
_cell_length_c    38.5414
_cell_angle_alpha 89.997
_cell_angle_beta  89.997
_cell_angle_gamma 89.997
_cell_volume      57251.5

_symmetry_cell_setting          triclinic
_symmetry_space_group_name_Hall 'P 1'
_symmetry_space_group_name_H-M  'P 1'
_symmetry_Int_Tables_number     1

_symmetry_equiv_pos_as_xyz 'x,y,z'

loop_
_atom_site_label
_atom_site_type_symbol
_atom_site_fract_x
_atom_site_fract_y
_atom_site_fract_z
_atom_site_charge
C1       C      0.018370000000     0.952260000000     0.518650000000     0.434675   
C2       C      0.017880000000     0.085000000000     0.518390000000     0.43462    
C3       C      0.951750000000     0.018360000000     0.518660000000     0.434608   
C4       C      0.084490000000     0.018900000000     0.518400000000     0.434645   
C5       C      0.018380000000     0.518310000000     0.584620000000     0.434462   
C6       C      0.018570000000     0.518950000000     0.451880000000     0.434741   
C7       C      0.018570000000     0.585000000000     0.518540000000     0.434541   
C8       C      0.018360000000     0.452260000000     0.517960000000     0.434655   
C9       C      0.518450000000     0.018410000000     0.452050000000     0.434456   
C10      C      0.517780000000     0.018440000000     0.584790000000     0.434532   
C11      C      0.451740000000     0.018700000000     0.518110000000     0.434505   
C12      C      0.584480000000     0.018150000000     0.518730000000     0.434517   
C13      C      0.517780000000     0.084760000000     0.018150000000     0.434582   
C14      C      0.518550000000     0.952020000000     0.018680000000     0.434588   
C15      C      0.518480000000     0.018600000000     0.084790000000     0.434596   
C16      C      0.517840000000     0.018170000000     0.952040000000     0.434593   
C17      C      0.018020000000     0.518260000000     0.951870000000     0.434625   
C18      C      0.018520000000     0.518880000000     0.084610000000     0.434406   
C19      C      0.951900000000     0.518540000000     0.018520000000     0.434844   
C20      C      0.084640000000     0.518580000000     0.017960000000     0.434666   
C21      C      0.517960000000     0.452020000000     0.017970000000     0.434492   
C22      C      0.518550000000     0.584760000000     0.018710000000     0.434469   
C23      C      0.451890000000     0.518650000000     0.018060000000     0.43462    
C24      C      0.584630000000     0.518140000000     0.018620000000     0.434509   
C25      C      0.898250000000     0.549260000000     0.017670000000     0.0747568  
C26      C      0.862010000000     0.549710000000     0.017710000000    -0.0948141  
C27      C      0.843460000000     0.518500000000     0.019000000000     0.0504786  
C28      C      0.862050000000     0.487310000000     0.020160000000    -0.0948027  
C29      C      0.898280000000     0.487790000000     0.019900000000     0.0747659  
C30      C      0.804930000000     0.518480000000     0.019070000000    -0.00744479 
C31      C      0.786350000000     0.540660000000     0.996860000000    -0.0353246  
C32      C      0.750100000000     0.540520000000     0.996790000000    -0.0353375  
C33      C      0.731600000000     0.518330000000     0.019060000000    -0.00738766 
C34      C      0.750170000000     0.496250000000     0.041370000000    -0.0354455  
C35      C      0.786430000000     0.496250000000     0.041300000000    -0.035413   
C36      C      0.693070000000     0.518200000000     0.018970000000     0.0503039  
C37      C      0.674590000000     0.519260000000     0.987710000000    -0.0946803  
C38      C      0.638360000000     0.519090000000     0.988060000000     0.0747667  
C39      C      0.638160000000     0.517090000000     0.049550000000     0.0746871  
C40      C      0.674400000000     0.517030000000     0.050120000000    -0.0946484  
C41      C      0.138270000000     0.487840000000     0.018630000000     0.0746649  
C42      C      0.174510000000     0.487380000000     0.018630000000    -0.0947196  
C43      C      0.193070000000     0.518590000000     0.017570000000     0.0504533  
C44      C      0.174500000000     0.549790000000     0.016600000000    -0.094756   
C45      C      0.138260000000     0.549330000000     0.016840000000     0.0747458  
C46      C      0.231600000000     0.518580000000     0.017540000000    -0.00743623 
C47      C      0.250140000000     0.496280000000     0.039650000000    -0.0353823  
C48      C      0.286390000000     0.496380000000     0.039750000000    -0.0354317  
C49      C      0.304930000000     0.518640000000     0.017590000000    -0.00741939 
C50      C      0.286390000000     0.540860000000     0.995380000000    -0.0353464  
C51      C      0.250130000000     0.540900000000     0.995430000000    -0.0353094  
C52      C      0.343460000000     0.518720000000     0.017690000000     0.0503908  
C53      C      0.361930000000     0.517550000000     0.048950000000    -0.0948113  
C54      C      0.398160000000     0.517680000000     0.048600000000     0.0747242  
C55      C      0.398360000000     0.519810000000     0.987130000000     0.0748594  
C56      C      0.362120000000     0.519930000000     0.986550000000    -0.094693   
C57      C      0.517850000000     0.638250000000     0.049720000000     0.0747465  
C58      C      0.517920000000     0.674480000000     0.050350000000    -0.0946882  
C59      C      0.519140000000     0.693190000000     0.019230000000     0.0503295  
C60      C      0.520170000000     0.674760000000     0.987950000000    -0.0946366  
C61      C      0.519860000000     0.638530000000     0.988240000000     0.0747314  
C62      C      0.519280000000     0.731720000000     0.019380000000    -0.00740319 
C63      C      0.497130000000     0.750250000000     0.041670000000    -0.0354111  
C64      C      0.497040000000     0.786510000000     0.041600000000    -0.0354721  
C65      C      0.519250000000     0.805050000000     0.019390000000    -0.00739714 
C66      C      0.541530000000     0.786530000000     0.997230000000    -0.0353659  
C67      C      0.541470000000     0.750270000000     0.997150000000    -0.0353642  
C68      C      0.519100000000     0.843580000000     0.019250000000     0.0504692  
C69      C      0.487810000000     0.862010000000     0.020290000000    -0.0948081  
C70      C      0.488090000000     0.898240000000     0.019980000000     0.0747303  
C71      C      0.549570000000     0.898530000000     0.017940000000     0.0747297  
C72      C      0.550210000000     0.862290000000     0.018010000000    -0.0947822  
C73      C      0.486770000000     0.138250000000     0.018860000000     0.0747637  
C74      C      0.486140000000     0.174490000000     0.018770000000    -0.0947811  
C75      C      0.517260000000     0.193190000000     0.017520000000     0.0504929  
C76      C      0.548540000000     0.174760000000     0.016500000000    -0.0948038  
C77      C      0.548250000000     0.138530000000     0.016830000000     0.0746674  
C78      C      0.517110000000     0.231720000000     0.017350000000    -0.00745989 
C79      C      0.494850000000     0.250270000000     0.039500000000    -0.0353858  
C80      C      0.494930000000     0.286530000000     0.039560000000    -0.0354594  
C81      C      0.517140000000     0.305050000000     0.017320000000    -0.00738443 
C82      C      0.539270000000     0.286500000000     0.995050000000    -0.0353425  
C83      C      0.539330000000     0.250250000000     0.995130000000    -0.0353085  
C84      C      0.517300000000     0.343580000000     0.017460000000     0.0503165  
C85      C      0.516300000000     0.362020000000     0.048750000000    -0.0948222  
C86      C      0.516640000000     0.398250000000     0.048440000000     0.0747732  
C87      C      0.518640000000     0.398520000000     0.986960000000     0.0747415  
C88      C      0.518530000000     0.362290000000     0.986340000000    -0.0945766  
C89      C      0.518380000000     0.049190000000     0.638420000000     0.0747258  
C90      C      0.518340000000     0.049660000000     0.674650000000    -0.0947941  
C91      C      0.517280000000     0.018450000000     0.693220000000     0.0503938  
C92      C      0.516350000000     0.987240000000     0.674660000000    -0.0947293  
C93      C      0.516620000000     0.987700000000     0.638430000000     0.07484    
C94      C      0.517240000000     0.018460000000     0.731750000000    -0.00740943 
C95      C      0.539340000000     0.040760000000     0.750300000000    -0.0354071  
C96      C      0.539440000000     0.040640000000     0.786560000000    -0.0354454  
C97      C      0.517290000000     0.018350000000     0.805080000000    -0.00739903 
C98      C      0.495090000000     0.996150000000     0.786540000000    -0.0353395  
C99      C      0.495130000000     0.996120000000     0.750270000000    -0.035353   
C100     C      0.517410000000     0.018230000000     0.843610000000     0.0504647  
C101     C      0.486280000000     0.017000000000     0.862290000000    -0.0947545  
C102     C      0.486880000000     0.017070000000     0.898530000000     0.0747113  
C103     C      0.548360000000     0.019210000000     0.898290000000     0.0747166  
C104     C      0.548680000000     0.019380000000     0.862060000000    -0.0947791  
C105     C      0.549440000000     0.019650000000     0.138300000000     0.0747095  
C106     C      0.550030000000     0.019720000000     0.174540000000    -0.0947313  
C107     C      0.518890000000     0.018560000000     0.193220000000     0.0504921  
C108     C      0.487630000000     0.017480000000     0.174760000000    -0.0948704  
C109     C      0.487960000000     0.017640000000     0.138530000000     0.0747854  
C110     C      0.519000000000     0.018450000000     0.231750000000    -0.00747277 
C111     C      0.541300000000     0.040560000000     0.250300000000    -0.0353727  
C112     C      0.541250000000     0.040590000000     0.286560000000    -0.0354807  
C113     C      0.519030000000     0.018370000000     0.305080000000    -0.0073864  
C114     C      0.496830000000     0.996160000000     0.286530000000    -0.035362   
C115     C      0.496750000000     0.996270000000     0.250280000000    -0.0352944  
C116     C      0.518970000000     0.018380000000     0.343620000000     0.0503672  
C117     C      0.520110000000     0.049580000000     0.362180000000    -0.0947564  
C118     C      0.519840000000     0.049130000000     0.398410000000     0.0747255  
C119     C      0.517640000000     0.987660000000     0.398420000000     0.0748344  
C120     C      0.517690000000     0.987180000000     0.362190000000    -0.0947309  
C121     C      0.049070000000     0.519100000000     0.638280000000     0.074654   
C122     C      0.049500000000     0.519070000000     0.674510000000    -0.0947207  
C123     C      0.018280000000     0.517820000000     0.693050000000     0.0503117  
C124     C      0.987090000000     0.516700000000     0.674450000000    -0.0946675  
C125     C      0.987590000000     0.516970000000     0.638220000000     0.0748197  
C126     C      0.018250000000     0.517770000000     0.731580000000    -0.00736652 
C127     C      0.040440000000     0.539980000000     0.750140000000    -0.0354842  
C128     C      0.040310000000     0.540060000000     0.786400000000    -0.0354146  
C129     C      0.018130000000     0.517790000000     0.804910000000    -0.00744168 
C130     C      0.996030000000     0.495490000000     0.786350000000    -0.0353032  
C131     C      0.996010000000     0.495550000000     0.750090000000    -0.035399   
C132     C      0.018010000000     0.517890000000     0.843440000000     0.0504661  
C133     C      0.019060000000     0.549150000000     0.861910000000    -0.0948034  
C134     C      0.018920000000     0.548810000000     0.898140000000     0.074696   
C135     C      0.016980000000     0.487320000000     0.898350000000     0.0747673  
C136     C      0.016890000000     0.486740000000     0.862110000000    -0.0947632  
C137     C      0.019640000000     0.488350000000     0.138360000000     0.0746832  
C138     C      0.019830000000     0.488020000000     0.174590000000    -0.094842   
C139     C      0.018790000000     0.519290000000     0.193050000000     0.0504595  
C140     C      0.017680000000     0.550430000000     0.174360000000    -0.0947483  
C141     C      0.017710000000     0.549840000000     0.138130000000     0.0747338  
C142     C      0.018850000000     0.519410000000     0.231580000000    -0.00745486 
C143     C      0.040970000000     0.497120000000     0.250140000000    -0.0354107  
C144     C      0.041030000000     0.497210000000     0.286400000000    -0.03549    
C145     C      0.018820000000     0.519450000000     0.304910000000    -0.00737378 
C146     C      0.996660000000     0.541690000000     0.286350000000    -0.0353662  
C147     C      0.996750000000     0.541740000000     0.250090000000    -0.0352675  
C148     C      0.018750000000     0.519400000000     0.343440000000     0.0503191  
C149     C      0.049920000000     0.518090000000     0.362060000000    -0.0947539  
C150     C      0.049390000000     0.518070000000     0.398290000000     0.0746926  
C151     C      0.987920000000     0.520350000000     0.398200000000     0.0748168  
C152     C      0.987520000000     0.520600000000     0.361960000000    -0.0946305  
C153     C      0.138070000000     0.020160000000     0.487580000000     0.07476    
C154     C      0.174310000000     0.020370000000     0.487060000000    -0.0948139  
C155     C      0.192920000000     0.019230000000     0.518240000000     0.0504857  
C156     C      0.174400000000     0.018030000000     0.549460000000    -0.0947917  
C157     C      0.138160000000     0.018040000000     0.549050000000     0.0747486  
C158     C      0.231450000000     0.019230000000     0.518190000000    -0.00744638 
C159     C      0.249970000000     0.041420000000     0.495940000000    -0.0354267  
C160     C      0.286240000000     0.041460000000     0.495960000000    -0.035433   
C161     C      0.304780000000     0.019160000000     0.518070000000    -0.00741026 
C162     C      0.286250000000     0.996910000000     0.540260000000    -0.0353527  
C163     C      0.250000000000     0.997020000000     0.540390000000    -0.0353143  
C164     C      0.343310000000     0.019060000000     0.517990000000     0.0503746  
C165     C      0.361970000000     0.050210000000     0.516870000000    -0.0947406  
C166     C      0.398210000000     0.049630000000     0.517000000000     0.0747067  
C167     C      0.398020000000     0.988150000000     0.518970000000     0.0748231  
C168     C      0.361780000000     0.987800000000     0.519070000000    -0.0947318  
C169     C      0.638210000000     0.048710000000     0.519860000000     0.0746823  
C170     C      0.674430000000     0.049060000000     0.520060000000    -0.0947475  
C171     C      0.692920000000     0.017810000000     0.519040000000     0.050304   
C172     C      0.674260000000     0.986650000000     0.517930000000    -0.0945756  
C173     C      0.638020000000     0.987220000000     0.517960000000     0.0747659  
C174     C      0.731450000000     0.017720000000     0.519090000000    -0.00738379 
C175     C      0.749990000000     0.040040000000     0.541180000000    -0.0354579  
C176     C      0.786250000000     0.039990000000     0.541210000000    -0.0354352  
C177     C      0.804780000000     0.017770000000     0.519010000000    -0.00740833 
C178     C      0.786240000000     0.995490000000     0.496870000000    -0.0353455  
C179     C      0.749980000000     0.995400000000     0.496980000000    -0.035333   
C180     C      0.843310000000     0.017860000000     0.518910000000     0.0504219  
C181     C      0.861950000000     0.019200000000     0.550070000000    -0.094778   
C182     C      0.898180000000     0.019250000000     0.549520000000     0.0747339  
C183     C      0.898050000000     0.016940000000     0.488050000000     0.0747559  
C184     C      0.861820000000     0.016670000000     0.487670000000    -0.0947532  
C185     C      0.049380000000     0.638600000000     0.517680000000     0.0747385  
C186     C      0.049890000000     0.674830000000     0.517650000000    -0.0947912  
C187     C      0.018710000000     0.693440000000     0.518860000000     0.050317   
C188     C      0.987480000000     0.674900000000     0.519990000000    -0.0946578  
C189     C      0.987900000000     0.638670000000     0.519790000000     0.074793   
C190     C      0.018750000000     0.731970000000     0.518900000000    -0.00736109 
C191     C      0.040990000000     0.750500000000     0.496720000000    -0.035483   
C192     C      0.040910000000     0.786760000000     0.496640000000    -0.035394   
C193     C      0.018730000000     0.805300000000     0.518890000000    -0.00747451 
C194     C      0.996570000000     0.786760000000     0.541150000000    -0.0352912  
C195     C      0.996510000000     0.750500000000     0.541090000000    -0.0354039  
C196     C      0.018680000000     0.843830000000     0.518830000000     0.0505021  
C197     C      0.019790000000     0.862350000000     0.487600000000    -0.0948346  
C198     C      0.019580000000     0.898580000000     0.488000000000     0.0747575  
C199     C      0.017510000000     0.898680000000     0.549480000000     0.0747153  
C200     C      0.017480000000     0.862440000000     0.550000000000    -0.0947648  
C201     C      0.018920000000     0.138690000000     0.549020000000     0.0746893  
C202     C      0.019040000000     0.174930000000     0.549400000000    -0.0947144  
C203     C      0.017840000000     0.193430000000     0.518160000000     0.0504436  
C204     C      0.016590000000     0.174800000000     0.487000000000    -0.0947889  
C205     C      0.016690000000     0.138570000000     0.487540000000     0.0746759  
C206     C      0.017920000000     0.231970000000     0.518070000000    -0.00743493 
C207     C      0.040150000000     0.250500000000     0.540270000000    -0.0353932  
C208     C      0.040310000000     0.286760000000     0.540120000000    -0.035495   
C209     C      0.018100000000     0.305300000000     0.517910000000    -0.00736412 
C210     C      0.995800000000     0.286770000000     0.495780000000    -0.0354184  
C211     C      0.995790000000     0.250510000000     0.495790000000    -0.035316   
C212     C      0.018170000000     0.343830000000     0.517850000000     0.0503335  
C213     C      0.049410000000     0.362340000000     0.519040000000    -0.0947636  
C214     C      0.049010000000     0.398580000000     0.518940000000     0.0746975  
C215     C      0.987530000000     0.398690000000     0.516750000000     0.07479    
C216     C      0.987010000000     0.362460000000     0.516630000000    -0.0946405  
H1       H      0.911530000000     0.574040000000     0.016770000000     0.0253561  
H2       H      0.848640000000     0.574420000000     0.017170000000     0.0528989  
H3       H      0.848710000000     0.462580000000     0.020790000000     0.0528741  
H4       H      0.911600000000     0.463020000000     0.020680000000     0.0253536  
H5       H      0.799860000000     0.557870000000     0.979220000000     0.0375564  
H6       H      0.736530000000     0.558070000000     0.979530000000     0.0375258  
H7       H      0.736660000000     0.478640000000     0.058610000000     0.0375598  
H8       H      0.800000000000     0.479080000000     0.058930000000     0.0375617  
H9       H      0.688020000000     0.519780000000     0.963030000000     0.0528401  
H10      H      0.625140000000     0.519830000000     0.963240000000     0.0253331  
H11      H      0.624780000000     0.516320000000     0.074280000000     0.0254116  
H12      H      0.687690000000     0.516560000000     0.074880000000     0.0529005  
H13      H      0.124980000000     0.463060000000     0.019350000000     0.0253564  
H14      H      0.187870000000     0.462650000000     0.019000000000     0.0528581  
H15      H      0.187860000000     0.574520000000     0.016160000000     0.0528376  
H16      H      0.124960000000     0.574110000000     0.016220000000     0.025323   
H17      H      0.236600000000     0.479000000000     0.057210000000     0.0374876  
H18      H      0.299930000000     0.478740000000     0.056940000000     0.0375067  
H19      H      0.299940000000     0.558520000000     0.978220000000     0.0375557  
H20      H      0.236590000000     0.558170000000     0.977870000000     0.0375364  
H21      H      0.348490000000     0.517000000000     0.073630000000     0.0528403  
H22      H      0.411370000000     0.516870000000     0.073420000000     0.0253166  
H23      H      0.411750000000     0.520620000000     0.962400000000     0.0253985  
H24      H      0.348840000000     0.520470000000     0.961790000000     0.0529506  
H25      H      0.517010000000     0.624830000000     0.074440000000     0.0254044  
H26      H      0.517480000000     0.687730000000     0.075140000000     0.0528922  
H27      H      0.520720000000     0.688230000000     0.963280000000     0.0528072  
H28      H      0.520540000000     0.625350000000     0.963400000000     0.0253259  
H29      H      0.479520000000     0.736700000000     0.058880000000     0.0375461  
H30      H      0.479810000000     0.800040000000     0.059190000000     0.0375495  
H31      H      0.558720000000     0.800070000000     0.979610000000     0.0375945  
H32      H      0.559050000000     0.736740000000     0.979910000000     0.0375538  
H33      H      0.463150000000     0.848540000000     0.020870000000     0.0528376  
H34      H      0.463250000000     0.911420000000     0.020690000000     0.025313   
H35      H      0.574280000000     0.911950000000     0.017090000000     0.0254017  
H36      H      0.574990000000     0.849050000000     0.017560000000     0.0529417  
H37      H      0.462060000000     0.124840000000     0.019720000000     0.025366   
H38      H      0.461360000000     0.187740000000     0.019210000000     0.0529287  
H39      H      0.573210000000     0.188220000000     0.015920000000     0.0528119  
H40      H      0.573090000000     0.125340000000     0.016140000000     0.0253166  
H41      H      0.477640000000     0.236740000000     0.057130000000     0.0375277  
H42      H      0.477350000000     0.300080000000     0.056800000000     0.037523   
H43      H      0.556890000000     0.300030000000     0.977830000000     0.0375495  
H44      H      0.556560000000     0.236700000000     0.977540000000     0.0375275  
H45      H      0.515730000000     0.348560000000     0.073410000000     0.0528634  
H46      H      0.515970000000     0.411430000000     0.073280000000     0.0253016  
H47      H      0.519480000000     0.411940000000     0.962250000000     0.0254231  
H48      H      0.518960000000     0.349030000000     0.961560000000     0.0528992  
H49      H      0.519090000000     0.073970000000     0.625120000000     0.0253523  
H50      H      0.518700000000     0.074380000000     0.688010000000     0.0529099  
H51      H      0.515900000000     0.962520000000     0.688020000000     0.0529034  
H52      H      0.516020000000     0.962920000000     0.625130000000     0.0253433  
H53      H      0.556890000000     0.058050000000     0.736770000000     0.0375027  
H54      H      0.556630000000     0.058270000000     0.800100000000     0.0375271  
H55      H      0.477940000000     0.978470000000     0.800070000000     0.0375726  
H56      H      0.477580000000     0.978850000000     0.736730000000     0.0375428  
H57      H      0.461510000000     0.016460000000     0.849030000000     0.0529297  
H58      H      0.462160000000     0.016240000000     0.911930000000     0.0254008  
H59      H      0.573190000000     0.020010000000     0.911490000000     0.0253242  
H60      H      0.573360000000     0.019950000000     0.848610000000     0.05282    
H61      H      0.574160000000     0.020420000000     0.124910000000     0.0253743  
H62      H      0.574800000000     0.020210000000     0.187810000000     0.0529079  
H63      H      0.462950000000     0.016970000000     0.188200000000     0.0528259  
H64      H      0.463130000000     0.016890000000     0.125330000000     0.0252808  
H65      H      0.558540000000     0.058160000000     0.236770000000     0.037534   
H66      H      0.558870000000     0.057780000000     0.300110000000     0.0375706  
H67      H      0.479190000000     0.978960000000     0.300060000000     0.0375451  
H68      H      0.479490000000     0.978710000000     0.236730000000     0.0375204  
H69      H      0.520730000000     0.074300000000     0.348810000000     0.0528531  
H70      H      0.520610000000     0.073910000000     0.411710000000     0.02536    
H71      H      0.516750000000     0.962890000000     0.411730000000     0.0253566  
H72      H      0.517170000000     0.962460000000     0.348840000000     0.0529117  
H73      H      0.073850000000     0.519970000000     0.625000000000     0.025392   
H74      H      0.074210000000     0.519570000000     0.687890000000     0.0528778  
H75      H      0.962360000000     0.516100000000     0.687790000000     0.0528772  
H76      H      0.962830000000     0.516220000000     0.624890000000     0.025351   
H77      H      0.057650000000     0.557610000000     0.736630000000     0.0375663  
H78      H      0.057860000000     0.557320000000     0.799950000000     0.0375306  
H79      H      0.978430000000     0.478250000000     0.799870000000     0.0375729  
H80      H      0.978840000000     0.477930000000     0.736520000000     0.0375916  
H81      H      0.019530000000     0.573830000000     0.848470000000     0.0528377  
H82      H      0.019640000000     0.573630000000     0.911350000000     0.0253291  
H83      H      0.016250000000     0.462590000000     0.911730000000     0.0253764  
H84      H      0.016440000000     0.461980000000     0.848830000000     0.0529303  
H85      H      0.020330000000     0.463530000000     0.125150000000     0.0253141  
H86      H      0.020320000000     0.463350000000     0.188030000000     0.0528555  
H87      H      0.017240000000     0.575200000000     0.187630000000     0.0529034  
H88      H      0.016950000000     0.574560000000     0.124730000000     0.0253948  
H89      H      0.058530000000     0.479840000000     0.236620000000     0.037496   
H90      H      0.058180000000     0.479550000000     0.299950000000     0.0375468  
H91      H      0.979470000000     0.559350000000     0.299870000000     0.0375811  
H92      H      0.979180000000     0.559000000000     0.236530000000     0.0375643  
H93      H      0.074660000000     0.517520000000     0.348740000000     0.0528697  
H94      H      0.074140000000     0.517150000000     0.411630000000     0.025367   
H95      H      0.963120000000     0.521160000000     0.411460000000     0.0253633  
H96      H      0.962820000000     0.521240000000     0.348560000000     0.0528692  
H97      H      0.124730000000     0.020920000000     0.462820000000     0.0253342  
H98      H      0.187630000000     0.020940000000     0.462320000000     0.0528765  
H99      H      0.187790000000     0.017510000000     0.574170000000     0.0528606  
H100     H      0.124900000000     0.017200000000     0.573850000000     0.02535    
H101     H      0.236420000000     0.059060000000     0.478760000000     0.0375545  
H102     H      0.299770000000     0.058690000000     0.478350000000     0.0375493  
H103     H      0.299800000000     0.979650000000     0.557820000000     0.0375329  
H104     H      0.236470000000     0.979400000000     0.557610000000     0.0375457  
H105     H      0.348690000000     0.074970000000     0.516390000000     0.0529381  
H106     H      0.411590000000     0.074360000000     0.516270000000     0.0253948  
H107     H      0.411230000000     0.963330000000     0.519710000000     0.025302   
H108     H      0.348350000000     0.963120000000     0.519550000000     0.0528487  
H109     H      0.624980000000     0.073530000000     0.520540000000     0.0253297  
H110     H      0.687860000000     0.073750000000     0.520530000000     0.0528107  
H111     H      0.687550000000     0.961890000000     0.517510000000     0.0529073  
H112     H      0.624650000000     0.962490000000     0.517220000000     0.0253985  
H113     H      0.736470000000     0.057320000000     0.558740000000     0.0375089  
H114     H      0.799790000000     0.057670000000     0.558350000000     0.0375376  
H115     H      0.799770000000     0.977850000000     0.479680000000     0.0376003  
H116     H      0.736430000000     0.978120000000     0.479440000000     0.0375898  
H117     H      0.848650000000     0.019760000000     0.574820000000     0.0528792  
H118     H      0.911530000000     0.020190000000     0.574260000000     0.0253684  
H119     H      0.911300000000     0.016130000000     0.463240000000     0.0253667  
H120     H      0.848400000000     0.016000000000     0.462980000000     0.0528597  
H121     H      0.074140000000     0.625270000000     0.516840000000     0.0253511  
H122     H      0.074620000000     0.688160000000     0.517140000000     0.0528876  
H123     H      0.962780000000     0.688290000000     0.520560000000     0.0528982  
H124     H      0.963110000000     0.625400000000     0.520550000000     0.0253798  
H125     H      0.058210000000     0.736970000000     0.479110000000     0.0375781  
H126     H      0.058510000000     0.800300000000     0.479410000000     0.0375449  
H127     H      0.978960000000     0.800300000000     0.558370000000     0.0375701  
H128     H      0.979290000000     0.736970000000     0.558700000000     0.0375832  
H129     H      0.020340000000     0.848960000000     0.462900000000     0.05291    
H130     H      0.020330000000     0.911850000000     0.463200000000     0.0253775  
H131     H      0.016690000000     0.912020000000     0.574240000000     0.0253662  
H132     H      0.016990000000     0.849120000000     0.574750000000     0.0528413  
H133     H      0.019760000000     0.125450000000     0.573820000000     0.0253553  
H134     H      0.019630000000     0.188340000000     0.574100000000     0.0528385  
H135     H      0.016030000000     0.188100000000     0.462250000000     0.0528556  
H136     H      0.015850000000     0.125210000000     0.462800000000     0.02536    
H137     H      0.057740000000     0.236960000000     0.557510000000     0.0375618  
H138     H      0.057560000000     0.300290000000     0.557690000000     0.0375987  
H139     H      0.978610000000     0.300300000000     0.478150000000     0.037572   
H140     H      0.978140000000     0.236980000000     0.478610000000     0.037546   
H141     H      0.074100000000     0.348940000000     0.519600000000     0.052896   
H142     H      0.073810000000     0.411830000000     0.519770000000     0.0253575  
H143     H      0.962790000000     0.412040000000     0.515930000000     0.0253599  
H144     H      0.962260000000     0.349150000000     0.516070000000     0.0528495  
N1       N      0.916280000000     0.518530000000     0.018700000000    -0.198941   
N2       N      0.620250000000     0.518090000000     0.018750000000    -0.198896   
N3       N      0.120250000000     0.518590000000     0.017810000000    -0.198957   
N4       N      0.416280000000     0.518720000000     0.017920000000    -0.199012   
N5       N      0.518750000000     0.620370000000     0.018900000000    -0.198962   
N6       N      0.518740000000     0.916400000000     0.018860000000    -0.198876   
N7       N      0.517590000000     0.120370000000     0.017950000000    -0.19894    
N8       N      0.517750000000     0.416400000000     0.017790000000    -0.198908   
N9       N      0.517590000000     0.018440000000     0.620410000000    -0.198931   
N10      N      0.517690000000     0.018140000000     0.916430000000    -0.19893    
N11      N      0.518630000000     0.018640000000     0.120400000000    -0.198969   
N12      N      0.518650000000     0.018400000000     0.416430000000    -0.198931   
N13      N      0.018340000000     0.518130000000     0.620230000000    -0.198962   
N14      N      0.017960000000     0.518120000000     0.916260000000    -0.198943   
N15      N      0.018630000000     0.519030000000     0.120230000000    -0.198832   
N16      N      0.018620000000     0.519120000000     0.416260000000    -0.198961   
N17      N      0.120100000000     0.019040000000     0.518340000000    -0.198988   
N18      N      0.416130000000     0.018830000000     0.518010000000    -0.198994   
N19      N      0.620100000000     0.018020000000     0.518860000000    -0.1989     
N20      N      0.916130000000     0.018190000000     0.518740000000    -0.198883   
N21      N      0.018620000000     0.620620000000     0.518680000000    -0.198918   
N22      N      0.018490000000     0.916650000000     0.518710000000    -0.198952   
N23      N      0.017810000000     0.120610000000     0.518320000000    -0.198925   
N24      N      0.018300000000     0.416650000000     0.517870000000    -0.199005   
Ni1      Ni     0.018170000000     0.018690000000     0.549380000000     1.00249    
Ni2      Ni     0.018060000000     0.018570000000     0.487670000000     1.00248    
Ni3      Ni     0.049320000000     0.518590000000     0.518280000000     1.0029     
Ni4      Ni     0.987620000000     0.518680000000     0.518210000000     1.00242    
Ni5      Ni     0.517970000000     0.987570000000     0.518430000000     1.00287    
Ni6      Ni     0.518260000000     0.049280000000     0.518410000000     1.00279    
Ni7      Ni     0.487310000000     0.018190000000     0.018580000000     1.0026     
Ni8      Ni     0.549020000000     0.018580000000     0.018250000000     1.00275    
Ni9      Ni     0.018280000000     0.487710000000     0.018400000000     1.00279    
Ni10     Ni     0.018260000000     0.549420000000     0.018080000000     1.00245    
Ni11     Ni     0.518110000000     0.518200000000     0.049190000000     1.00241    
Ni12     Ni     0.518410000000     0.518580000000     0.987490000000     1.00258    
O1       O      0.018080000000     0.968990000000     0.547450000000    -0.450331   
O2       O      0.018260000000     0.068380000000     0.547260000000    -0.450363   
O3       O      0.968480000000     0.018770000000     0.547460000000    -0.450408   
O4       O      0.067860000000     0.018590000000     0.547260000000    -0.450437   
O5       O      0.067760000000     0.019060000000     0.489590000000    -0.450277   
O6       O      0.968370000000     0.018090000000     0.489790000000    -0.450278   
O7       O      0.017590000000     0.068260000000     0.489590000000    -0.450427   
O8       O      0.018540000000     0.968890000000     0.489780000000    -0.450349   
O9       O      0.047240000000     0.518640000000     0.567970000000    -0.45032    
O10      O      0.047370000000     0.518540000000     0.468600000000    -0.450708   
O11      O      0.047380000000     0.568280000000     0.518230000000    -0.450472   
O12      O      0.047220000000     0.468900000000     0.518340000000    -0.450391   
O13      O      0.989560000000     0.468990000000     0.517700000000    -0.450379   
O14      O      0.989710000000     0.568370000000     0.518720000000    -0.450267   
O15      O      0.989710000000     0.519200000000     0.468510000000    -0.450229   
O16      O      0.989570000000     0.518160000000     0.567900000000    -0.450272   
O17      O      0.518070000000     0.989580000000     0.468740000000    -0.450342   
O18      O      0.517820000000     0.989600000000     0.568120000000    -0.450339   
O19      O      0.468300000000     0.989800000000     0.518350000000    -0.450476   
O20      O      0.567680000000     0.989380000000     0.518510000000    -0.450199   
O21      O      0.567920000000     0.047050000000     0.518810000000    -0.450653   
O22      O      0.468550000000     0.047470000000     0.518020000000    -0.4502     
O23      O      0.517910000000     0.047270000000     0.568100000000    -0.450415   
O24      O      0.518650000000     0.047250000000     0.468720000000    -0.450387   
O25      O      0.489040000000     0.067910000000     0.018410000000    -0.450175   
O26      O      0.489620000000     0.968530000000     0.018790000000    -0.450542   
O27      O      0.489570000000     0.018350000000     0.068250000000    -0.450547   
O28      O      0.489090000000     0.018000000000     0.968870000000    -0.450238   
O29      O      0.546760000000     0.018430000000     0.968580000000    -0.450387   
O30      O      0.547240000000     0.018770000000     0.067960000000    -0.450247   
O31      O      0.547290000000     0.968870000000     0.018410000000    -0.450255   
O32      O      0.546710000000     0.068240000000     0.018040000000    -0.450571   
O33      O      0.017930000000     0.489500000000     0.968690000000    -0.450226   
O34      O      0.018630000000     0.489960000000     0.068070000000    -0.450426   
O35      O      0.968590000000     0.489720000000     0.018750000000    -0.450545   
O36      O      0.067960000000     0.489740000000     0.018100000000    -0.450495   
O37      O      0.067950000000     0.547410000000     0.017980000000    -0.450415   
O38      O      0.968560000000     0.547380000000     0.018140000000    -0.450331   
O39      O      0.018300000000     0.547640000000     0.067800000000    -0.450159   
O40      O      0.018220000000     0.547170000000     0.968420000000    -0.450522   
O41      O      0.517880000000     0.468530000000     0.046890000000    -0.450535   
O42      O      0.518300000000     0.567910000000     0.047460000000    -0.450145   
O43      O      0.468440000000     0.518380000000     0.046960000000    -0.450578   
O44      O      0.567830000000     0.517980000000     0.047390000000    -0.450114   
O45      O      0.568080000000     0.518390000000     0.989720000000    -0.450468   
O46      O      0.468690000000     0.518810000000     0.989290000000    -0.450106   
O47      O      0.518650000000     0.568240000000     0.989790000000    -0.450515   
O48      O      0.518220000000     0.468860000000     0.989220000000    -0.450057   


