data_structure

_audit_creation_method RASPA-1.0
_audit_creation_date 2023-5-19
_audit_author_name 'Poobodin Mano'

_cell_length_a    38.5982
_cell_length_b    38.5984
_cell_length_c    38.6004
_cell_angle_alpha 90
_cell_angle_beta  90
_cell_angle_gamma 90
_cell_volume      57508

_symmetry_cell_setting          triclinic
_symmetry_space_group_name_Hall 'P 1'
_symmetry_space_group_name_H-M  'P 1'
_symmetry_Int_Tables_number     1

_symmetry_equiv_pos_as_xyz 'x,y,z'

loop_
_atom_site_label
_atom_site_type_symbol
_atom_site_fract_x
_atom_site_fract_y
_atom_site_fract_z
_atom_site_charge
C1       C      0.054460000000     0.999840000000     0.483920000000     0.434868   
C2       C      0.921790000000     0.998240000000     0.489070000000     0.434882   
C3       C      0.987360000000     0.065270000000     0.487970000000     0.43497    
C4       C      0.989090000000     0.932590000000     0.484660000000     0.435621   
C5       C      0.997550000000     0.432540000000     0.490150000000     0.435654   
C6       C      0.994130000000     0.565210000000     0.492290000000     0.434977   
C7       C      0.997970000000     0.499770000000     0.425070000000     0.43477    
C8       C      0.993350000000     0.497620000000     0.557740000000     0.435492   
C9       C      0.490170000000     0.988740000000     0.434350000000     0.435444   
C10      C      0.485960000000     0.996670000000     0.566960000000     0.435202   
C11      C      0.554440000000     0.990530000000     0.502590000000     0.435734   
C12      C      0.421800000000     0.994590000000     0.498520000000     0.434896   
C13      C      0.490480000000     0.994620000000     0.066990000000     0.435358   
C14      C      0.489550000000     0.995570000000     0.934470000000     0.435159   
C15      C      0.487390000000     0.061600000000     0.001130000000     0.434994   
C16      C      0.492710000000     0.928940000000     0.000380000000     0.434803   
C17      C      0.069570000000     0.489680000000     0.990430000000     0.43491    
C18      C      0.936930000000     0.484840000000     0.992410000000     0.43555    
C19      C      0.004430000000     0.486090000000     0.057770000000     0.435332   
C20      C      0.002410000000     0.488640000000     0.925040000000     0.434835   
C21      C      0.501920000000     0.428920000000     0.998690000000     0.434691   
C22      C      0.504600000000     0.561590000000     0.994710000000     0.435441   
C23      C      0.436820000000     0.496160000000     0.998840000000     0.435401   
C24      C      0.569500000000     0.493990000000     0.995080000000     0.43469    
C25      C      0.845320000000     0.454700000000     0.996030000000    -0.104345   
C26      C      0.622440000000     0.492280000000     0.963270000000     0.0749058  
C27      C      0.623620000000     0.493670000000     0.024660000000     0.0752171  
C28      C      0.658630000000     0.491390000000     0.962160000000    -0.0941772  
C29      C      0.735280000000     0.509630000000     0.968430000000    -0.0356692  
C30      C      0.771490000000     0.508450000000     0.968290000000    -0.0343103  
C31      C      0.716220000000     0.490010000000     0.992490000000    -0.00670872 
C32      C      0.659760000000     0.492710000000     0.024480000000    -0.0945456  
C33      C      0.789420000000     0.487490000000     0.992080000000    -0.00903053 
C34      C      0.847460000000     0.516280000000     0.988470000000    -0.096981   
C35      C      0.770340000000     0.467810000000     0.016050000000    -0.0343124  
C36      C      0.883530000000     0.514660000000     0.989030000000     0.0739147  
C37      C      0.881700000000     0.453490000000     0.996600000000     0.10345    
C38      C      0.734180000000     0.469060000000     0.016260000000    -0.0355547  
C39      C      0.677750000000     0.491460000000     0.993010000000     0.0504393  
C40      C      0.827910000000     0.486150000000     0.992010000000     0.0553563  
C41      C      0.344910000000     0.494480000000     0.028320000000    -0.104541   
C42      C      0.122200000000     0.522020000000     0.990270000000     0.0749356  
C43      C      0.123970000000     0.460620000000     0.990180000000     0.0752987  
C44      C      0.158370000000     0.523520000000     0.990540000000    -0.0944431  
C45      C      0.234950000000     0.517390000000     0.971650000000    -0.0355474  
C46      C      0.271150000000     0.518150000000     0.972890000000    -0.0344245  
C47      C      0.216220000000     0.493830000000     0.992160000000    -0.00687054 
C48      C      0.160120000000     0.461190000000     0.990600000000    -0.0945985  
C49      C      0.289370000000     0.495530000000     0.994860000000    -0.00904865 
C50      C      0.347610000000     0.498660000000     0.966440000000    -0.096857   
C51      C      0.270620000000     0.471990000000     0.015360000000    -0.034353   
C52      C      0.383670000000     0.498530000000     0.968450000000     0.0738742  
C53      C      0.381270000000     0.494470000000     0.029940000000     0.103643   
C54      C      0.234490000000     0.471120000000     0.014000000000    -0.0354626  
C55      C      0.177780000000     0.492860000000     0.990930000000     0.0506271  
C56      C      0.327800000000     0.496400000000     0.996520000000     0.0553617  
C57      C      0.507220000000     0.653330000000     0.964950000000    -0.104509   
C58      C      0.525620000000     0.876730000000     0.000140000000     0.0750851  
C59      C      0.464270000000     0.874130000000     0.000490000000     0.0749988  
C60      C      0.527630000000     0.840620000000     0.999990000000    -0.0947225  
C61      C      0.476180000000     0.762350000000     0.019790000000    -0.035533   
C62      C      0.477630000000     0.726160000000     0.019000000000    -0.0343158  
C63      C      0.498960000000     0.782250000000     0.999490000000    -0.0068269  
C64      C      0.465340000000     0.837950000000     0.000380000000    -0.0944241  
C65      C      0.501830000000     0.709060000000     0.997820000000    -0.00895474 
C66      C      0.500100000000     0.650880000000     0.026570000000    -0.0967988  
C67      C      0.524710000000     0.728980000000     0.977660000000    -0.0344563  
C68      C      0.501220000000     0.614830000000     0.024830000000     0.0741102  
C69      C      0.508410000000     0.616970000000     0.963630000000     0.103887   
C70      C      0.523290000000     0.765130000000     0.978490000000    -0.0354977  
C71      C      0.497280000000     0.820730000000     0.000050000000     0.0505831  
C72      C      0.503000000000     0.670590000000     0.996460000000     0.0553146  
C73      C      0.457560000000     0.153490000000     0.000250000000    -0.104259   
C74      C      0.498850000000     0.374760000000     0.969300000000     0.075171   
C75      C      0.501090000000     0.376060000000     0.030660000000     0.0749186  
C76      C      0.497020000000     0.338650000000     0.969650000000    -0.0945223  
C77      C      0.515460000000     0.262900000000     0.024870000000    -0.035607   
C78      C      0.513610000000     0.226720000000     0.025150000000    -0.0343966  
C79      C      0.494880000000     0.282310000000     0.001930000000    -0.00668695 
C80      C      0.499390000000     0.339910000000     0.031930000000    -0.0942388  
C81      C      0.491030000000     0.209150000000     0.002600000000    -0.0088855  
C82      C      0.519440000000     0.150890000000     0.004390000000    -0.0969202  
C83      C      0.470290000000     0.228580000000     0.979830000000    -0.0344161  
C84      C      0.517540000000     0.114850000000     0.003750000000     0.0738622  
C85      C      0.456060000000     0.117090000000     0.999660000000     0.103285   
C86      C      0.472220000000     0.264720000000     0.979480000000    -0.0355134  
C87      C      0.497160000000     0.320740000000     0.001190000000     0.0505122  
C88      C      0.489310000000     0.170670000000     0.002560000000     0.0552549  
C89      C      0.481910000000     0.028770000000     0.657860000000    -0.104243   
C90      C      0.458330000000     0.994890000000     0.881240000000     0.0751334  
C91      C      0.519720000000     0.996760000000     0.880600000000     0.074984   
C92      C      0.457470000000     0.995130000000     0.845080000000    -0.0945626  
C93      C      0.511730000000     0.976630000000     0.768620000000    -0.0355752  
C94      C      0.511160000000     0.976940000000     0.732410000000    -0.0343702  
C95      C      0.487940000000     0.996560000000     0.787690000000    -0.00689607 
C96      C      0.519800000000     0.996930000000     0.844410000000    -0.0945036  
C97      C      0.486870000000     0.997290000000     0.714450000000    -0.00901568 
C98      C      0.489880000000     0.967200000000     0.657060000000    -0.0968779  
C99      C      0.463100000000     0.017230000000     0.733520000000    -0.0343021  
C100     C      0.489170000000     0.968000000000     0.620980000000     0.0741428  
C101     C      0.481200000000     0.029150000000     0.621450000000     0.103909   
C102     C      0.463610000000     0.016840000000     0.769710000000    -0.0353254  
C103     C      0.488420000000     0.996170000000     0.826190000000     0.0505847  
C104     C      0.486320000000     0.997750000000     0.675950000000     0.0552556  
C105     C      0.494900000000     0.957220000000     0.343230000000    -0.104269   
C106     C      0.460030000000     0.992880000000     0.120640000000     0.0751579  
C107     C      0.521440000000     0.994490000000     0.120410000000     0.0749494  
C108     C      0.459720000000     0.992080000000     0.156800000000    -0.0945332  
C109     C      0.467210000000     0.011210000000     0.232780000000    -0.0354779  
C110     C      0.467270000000     0.010260000000     0.268960000000    -0.0342286  
C111     C      0.491070000000     0.991390000000     0.213700000000    -0.0069139  
C112     C      0.522060000000     0.993600000000     0.156580000000    -0.0945696  
C113     C      0.491110000000     0.989370000000     0.286890000000    -0.00910168 
C114     C      0.487780000000     0.018890000000     0.344460000000    -0.0970715  
C115     C      0.514950000000     0.969500000000     0.267820000000    -0.0343967  
C116     C      0.487910000000     0.017770000000     0.380510000000     0.0743129  
C117     C      0.495010000000     0.956520000000     0.379660000000     0.103437   
C118     C      0.514970000000     0.970550000000     0.231630000000    -0.0355123  
C119     C      0.490960000000     0.992380000000     0.175230000000     0.0506152  
C120     C      0.491190000000     0.988460000000     0.325370000000     0.0553401  
C121     C      0.963750000000     0.491830000000     0.649470000000    -0.104528   
C122     C      0.000950000000     0.520410000000     0.872150000000     0.074916   
C123     C      0.002300000000     0.459020000000     0.870880000000     0.0752055  
C124     C      0.000340000000     0.521620000000     0.836000000000    -0.0945838  
C125     C      0.019390000000     0.515930000000     0.759760000000    -0.0355336  
C126     C      0.018180000000     0.516860000000     0.723580000000    -0.0344048  
C127     C      0.999580000000     0.491650000000     0.778340000000    -0.00689659 
C128     C      0.001600000000     0.459290000000     0.834700000000    -0.0945193  
C129     C      0.997010000000     0.493640000000     0.705180000000    -0.00899488 
C130     C      0.025380000000     0.498850000000     0.647080000000    -0.0968683  
C131     C      0.977270000000     0.469300000000     0.723750000000    -0.0344249  
C132     C      0.023470000000     0.499590000000     0.611040000000     0.074039   
C133     C      0.962230000000     0.492670000000     0.613090000000     0.10365    
C134     C      0.978580000000     0.468290000000     0.759910000000    -0.0354811  
C135     C      0.000600000000     0.490840000000     0.816810000000     0.0506425  
C136     C      0.995380000000     0.494850000000     0.666740000000     0.055358   
C137     C      0.008180000000     0.458180000000     0.150170000000    -0.10419    
C138     C      0.030370000000     0.499740000000     0.372500000000     0.0749815  
C139     C      0.968990000000     0.498960000000     0.370590000000     0.0751529  
C140     C      0.031960000000     0.498830000000     0.336350000000    -0.0943057  
C141     C      0.979190000000     0.515870000000     0.258330000000    -0.0356397  
C142     C      0.979910000000     0.513980000000     0.222170000000    -0.034379   
C143     C      0.002500000000     0.496340000000     0.278380000000    -0.00663776 
C144     C      0.969640000000     0.498130000000     0.334430000000    -0.0944363  
C145     C      0.003880000000     0.492430000000     0.205220000000    -0.00885514 
C146     C      0.000950000000     0.519720000000     0.146460000000    -0.0968493  
C147     C      0.027300000000     0.473010000000     0.225260000000    -0.0343729  
C148     C      0.001330000000     0.517170000000     0.110460000000     0.0739392  
C149     C      0.008510000000     0.456020000000     0.113800000000     0.103366   
C150     C      0.026650000000     0.474980000000     0.261410000000    -0.0355177  
C151     C      0.001370000000     0.497910000000     0.316840000000     0.0505171  
C152     C      0.004340000000     0.490090000000     0.166780000000     0.0552834  
C153     C      0.146480000000     0.001480000000     0.454460000000    -0.103883   
C154     C      0.367470000000     0.965330000000     0.498230000000     0.0753047  
C155     C      0.369140000000     0.026600000000     0.494390000000     0.0750723  
C156     C      0.331340000000     0.965730000000     0.496620000000    -0.0943484  
C157     C      0.255190000000     0.976210000000     0.513130000000    -0.0355478  
C158     C      0.219040000000     0.976800000000     0.511320000000    -0.0342996  
C159     C      0.275170000000     0.998090000000     0.491960000000    -0.00677813 
C160     C      0.333010000000     0.027930000000     0.492650000000    -0.0941639  
C161     C      0.202000000000     0.999230000000     0.488240000000    -0.00899841 
C162     C      0.143620000000     0.998390000000     0.516380000000    -0.0969401  
C163     C      0.221960000000     0.021140000000     0.467070000000    -0.0342316  
C164     C      0.107600000000     0.998640000000     0.514310000000     0.0738646  
C165     C      0.110070000000     0.001670000000     0.452790000000     0.103157   
C166     C      0.258130000000     0.020620000000     0.468940000000    -0.0353701  
C167     C      0.313630000000     0.997260000000     0.493770000000     0.0504012  
C168     C      0.163530000000     0.999750000000     0.486330000000     0.0551296  
C169     C      0.646270000000     0.960880000000     0.505540000000    -0.104307   
C170     C      0.866940000000     0.997930000000     0.460690000000     0.0750243  
C171     C      0.869650000000     0.997320000000     0.522040000000     0.0749971  
C172     C      0.830760000000     0.997370000000     0.461830000000    -0.0942654  
C173     C      0.754940000000     0.015760000000     0.472790000000    -0.0353616  
C174     C      0.718780000000     0.014760000000     0.474480000000    -0.0341711  
C175     C      0.775130000000     0.995770000000     0.495600000000    -0.00684744 
C176     C      0.833550000000     0.996770000000     0.524110000000    -0.0945585  
C177     C      0.701950000000     0.993720000000     0.498990000000    -0.00892989 
C178     C      0.643710000000     0.022340000000     0.497170000000    -0.0966221  
C179     C      0.722130000000     0.973820000000     0.521860000000    -0.0344075  
C180     C      0.607670000000     0.020580000000     0.498460000000     0.0741674  
C181     C      0.609910000000     0.959540000000     0.506910000000     0.103621   
C182     C      0.758270000000     0.974820000000     0.520170000000    -0.0354293  
C183     C      0.813600000000     0.996720000000     0.493810000000     0.0505102  
C184     C      0.663470000000     0.992320000000     0.500550000000     0.055208   
C185     C      0.993430000000     0.840760000000     0.455370000000    -0.104434   
C186     C      0.962350000000     0.618180000000     0.491940000000     0.0749818  
C187     C      0.023740000000     0.619310000000     0.493450000000     0.0751855  
C188     C      0.961240000000     0.654370000000     0.491780000000    -0.0943325  
C189     C      0.967410000000     0.730810000000     0.510880000000    -0.0356585  
C190     C      0.966970000000     0.767020000000     0.509720000000    -0.0343538  
C191     C      0.991550000000     0.711950000000     0.491160000000    -0.00678303 
C192     C      0.023570000000     0.655470000000     0.493220000000    -0.0946673  
C193     C      0.990530000000     0.785140000000     0.488660000000    -0.00905387 
C194     C      0.986300000000     0.843380000000     0.516990000000    -0.0969991  
C195     C      0.014680000000     0.766260000000     0.469000000000    -0.0343235  
C196     C      0.986390000000     0.879450000000     0.515020000000     0.0739166  
C197     C      0.993510000000     0.877120000000     0.453810000000     0.103559   
C198     C      0.015200000000     0.730110000000     0.470250000000    -0.0355018  
C199     C      0.992100000000     0.673470000000     0.492220000000     0.0505247  
C200     C      0.989910000000     0.823600000000     0.487010000000     0.0554018  
C201     C      0.026720000000     0.340640000000     0.486590000000    -0.104536   
C202     C      0.986560000000     0.119260000000     0.458190000000     0.0752893  
C203     C      0.988480000000     0.118340000000     0.519580000000     0.0749196  
C204     C      0.987270000000     0.155410000000     0.458230000000    -0.0945969  
C205     C      0.970830000000     0.231170000000     0.514070000000    -0.0356184  
C206     C      0.972270000000     0.267370000000     0.514180000000    -0.0343034  
C207     C      0.990270000000     0.211960000000     0.489980000000    -0.00677608 
C208     C      0.989120000000     0.154530000000     0.520550000000    -0.0943677  
C209     C      0.993320000000     0.285120000000     0.490340000000    -0.00901539 
C210     C      0.965120000000     0.343430000000     0.493900000000    -0.0968889  
C211     C      0.012780000000     0.265890000000     0.466310000000    -0.0343085  
C212     C      0.967130000000     0.379480000000     0.493360000000     0.0741636  
C213     C      0.028320000000     0.377000000000     0.486060000000     0.103952   
C214     C      0.011250000000     0.229750000000     0.466110000000    -0.0354693  
C215     C      0.988730000000     0.173510000000     0.489620000000     0.0506137  
C216     C      0.995060000000     0.323570000000     0.490460000000     0.0554499  
H1       H      0.610850000000     0.494650000000     0.049660000000     0.0259168  
H2       H      0.897100000000     0.539080000000     0.986010000000     0.0266417  
H3       H      0.720270000000     0.453360000000     0.034890000000     0.0380562  
H4       H      0.785450000000     0.523700000000     0.949310000000     0.0375975  
H5       H      0.834980000000     0.541270000000     0.985740000000     0.0537447  
H6       H      0.722220000000     0.526260000000     0.949990000000     0.0379842  
H7       H      0.830350000000     0.431010000000     0.998640000000     0.0580234  
H8       H      0.673510000000     0.493310000000     0.048930000000     0.0532451  
H9       H      0.671490000000     0.490090000000     0.937250000000     0.0532342  
H10      H      0.783380000000     0.451690000000     0.034960000000     0.0379564  
H11      H      0.608670000000     0.491980000000     0.938790000000     0.0260072  
H12      H      0.111430000000     0.435490000000     0.989970000000     0.0262552  
H13      H      0.397440000000     0.500240000000     0.944020000000     0.0272951  
H14      H      0.220810000000     0.452900000000     0.030380000000     0.0382216  
H15      H      0.284880000000     0.536730000000     0.956960000000     0.0377277  
H16      H      0.335330000000     0.499910000000     0.941230000000     0.0539536  
H17      H      0.221620000000     0.535020000000     0.954340000000     0.0378829  
H18      H      0.329690000000     0.493160000000     0.051960000000     0.058068   
H19      H      0.174130000000     0.436870000000     0.990410000000     0.053413   
H20      H      0.171010000000     0.548570000000     0.991110000000     0.0531958  
H21      H      0.283920000000     0.453980000000     0.032280000000     0.0380655  
H22      H      0.108190000000     0.546360000000     0.990270000000     0.0255648  
H23      H      0.438980000000     0.886350000000     0.000570000000     0.025761   
H24      H      0.498550000000     0.601130000000     0.049220000000     0.0272238  
H25      H      0.540990000000     0.779670000000     0.962280000000     0.0378278  
H26      H      0.459460000000     0.711570000000     0.034630000000     0.0377764  
H27      H      0.497290000000     0.663240000000     0.051610000000     0.0539519  
H28      H      0.457380000000     0.774730000000     0.036540000000     0.0379523  
H29      H      0.509400000000     0.668390000000     0.941280000000     0.0579388  
H30      H      0.441220000000     0.823610000000     0.000000000000     0.0531984  
H31      H      0.552890000000     0.828390000000     0.000200000000     0.0530801  
H32      H      0.543920000000     0.716620000000     0.961370000000     0.0377462  
H33      H      0.549800000000     0.891040000000     0.000140000000     0.0255663  
H34      H      0.502540000000     0.389870000000     0.055080000000     0.0259626  
H35      H      0.542040000000     0.101180000000     0.005230000000     0.026994   
H36      H      0.455730000000     0.278920000000     0.961750000000     0.0380821  
H37      H      0.529700000000     0.212500000000     0.043210000000     0.0376184  
H38      H      0.544640000000     0.163170000000     0.005790000000     0.053817   
H39      H      0.533400000000     0.275640000000     0.042280000000     0.0379071  
H40      H      0.433870000000     0.168630000000     0.999160000000     0.0579118  
H41      H      0.499240000000     0.327130000000     0.056910000000     0.0532075  
H42      H      0.495850000000     0.324850000000     0.945240000000     0.0532763  
H43      H      0.452880000000     0.215830000000     0.961890000000     0.0379405  
H44      H      0.498660000000     0.387480000000     0.944260000000     0.0259285  
H45      H      0.544590000000     0.997520000000     0.893630000000     0.0255618  
H46      H      0.492340000000     0.943310000000     0.607950000000     0.0272615  
H47      H      0.445140000000     0.032750000000     0.783620000000     0.0380872  
H48      H      0.529990000000     0.961510000000     0.718460000000     0.0377243  
H49      H      0.492860000000     0.942520000000     0.670090000000     0.0539539  
H50      H      0.530580000000     0.960470000000     0.781680000000     0.0378839  
H51      H      0.479170000000     0.052770000000     0.672290000000     0.0580636  
H52      H      0.544320000000     0.998160000000     0.830830000000     0.0531682  
H53      H      0.432650000000     0.994070000000     0.832050000000     0.0532995  
H54      H      0.443830000000     0.032900000000     0.720470000000     0.0379311  
H55      H      0.433740000000     0.993970000000     0.894770000000     0.0260699  
H56      H      0.546120000000     0.995510000000     0.107030000000     0.0255229  
H57      H      0.484920000000     0.042420000000     0.393660000000     0.0267861  
H58      H      0.533470000000     0.954720000000     0.217680000000     0.0380431  
H59      H      0.448400000000     0.025640000000     0.282910000000     0.0376864  
H60      H      0.485340000000     0.043730000000     0.331620000000     0.0538236  
H61      H      0.448700000000     0.027790000000     0.219750000000     0.0380474  
H62      H      0.497510000000     0.933320000000     0.328620000000     0.0581189  
H63      H      0.546790000000     0.994300000000     0.169820000000     0.0531254  
H64      H      0.435090000000     0.990730000000     0.170180000000     0.053338   
H65      H      0.533870000000     0.953420000000     0.280890000000     0.0379732  
H66      H      0.435230000000     0.992450000000     0.107460000000     0.026102   
H67      H      0.003150000000     0.434010000000     0.883650000000     0.0261853  
H68      H      0.047840000000     0.502750000000     0.597430000000     0.0272573  
H69      H      0.962750000000     0.449490000000     0.773460000000     0.0380986  
H70      H      0.033490000000     0.536070000000     0.710030000000     0.0376151  
H71      H      0.050490000000     0.500940000000     0.659450000000     0.0539448  
H72      H      0.036100000000     0.534050000000     0.773180000000     0.0378335  
H73      H      0.940150000000     0.489090000000     0.664550000000     0.0579722  
H74      H      0.002250000000     0.434890000000     0.820870000000     0.0534308  
H75      H      0.999150000000     0.546570000000     0.823220000000     0.0530402  
H76      H      0.961000000000     0.450810000000     0.710310000000     0.0379638  
H77      H      0.000550000000     0.544880000000     0.885940000000     0.0255232  
H78      H      0.943830000000     0.498820000000     0.383090000000     0.025916   
H79      H      0.998490000000     0.541290000000     0.096340000000     0.0269793  
H80      H      0.044740000000     0.459350000000     0.276090000000     0.0381459  
H81      H      0.961340000000     0.529050000000     0.207500000000     0.0377156  
H82      H      0.998350000000     0.545040000000     0.158290000000     0.0537767  
H83      H      0.960500000000     0.532850000000     0.270570000000     0.0379544  
H84      H      0.010560000000     0.434860000000     0.165730000000     0.0580456  
H85      H      0.945360000000     0.497030000000     0.320400000000     0.0532919  
H86      H      0.057050000000     0.499150000000     0.323790000000     0.0532409  
H87      H      0.046340000000     0.456450000000     0.212990000000     0.0379208  
H88      H      0.054680000000     0.500400000000     0.386540000000     0.026018   
H89      H      0.383090000000     0.050970000000     0.493530000000     0.0259133  
H90      H      0.093860000000     0.997530000000     0.538790000000     0.0270803  
H91      H      0.272770000000     0.037570000000     0.452030000000     0.037978   
H92      H      0.204430000000     0.959370000000     0.527760000000     0.0376831  
H93      H      0.155780000000     0.997500000000     0.541660000000     0.0537786  
H94      H      0.267480000000     0.958810000000     0.531400000000     0.0379949  
H95      H      0.161730000000     0.002190000000     0.430820000000     0.0579577  
H96      H      0.320350000000     0.052910000000     0.490880000000     0.053194   
H97      H      0.317430000000     0.941360000000     0.497120000000     0.053397   
H98      H      0.209620000000     0.038980000000     0.449260000000     0.0378578  
H99      H      0.380060000000     0.940300000000     0.500280000000     0.0263272  
H100     H      0.883990000000     0.997390000000     0.546190000000     0.0255262  
H101     H      0.593980000000     0.044920000000     0.495440000000     0.0273104  
H102     H      0.773010000000     0.958810000000     0.537890000000     0.0377983  
H103     H      0.703990000000     0.030170000000     0.456280000000     0.0377042  
H104     H      0.656000000000     0.047350000000     0.493810000000     0.0538696  
H105     H      0.767090000000     0.032470000000     0.453800000000     0.0379191  
H106     H      0.661360000000     0.937270000000     0.508030000000     0.0579841  
H107     H      0.821390000000     0.996790000000     0.549400000000     0.0529632  
H108     H      0.816390000000     0.996910000000     0.437740000000     0.0532904  
H109     H      0.710010000000     0.957640000000     0.541320000000     0.0377039  
H110     H      0.879130000000     0.998260000000     0.435390000000     0.0261506  
H111     H      0.048730000000     0.606500000000     0.494190000000     0.0257615  
H112     H      0.983370000000     0.893220000000     0.539320000000     0.0265286  
H113     H      0.033890000000     0.716360000000     0.454470000000     0.0381192  
H114     H      0.947890000000     0.780830000000     0.524970000000     0.0375968  
H115     H      0.983890000000     0.831090000000     0.542100000000     0.0537172  
H116     H      0.949060000000     0.717590000000     0.527490000000     0.0379577  
H117     H      0.996050000000     0.825600000000     0.431810000000     0.0581478  
H118     H      0.048020000000     0.669200000000     0.494080000000     0.0532291  
H119     H      0.936340000000     0.667250000000     0.490660000000     0.0533186  
H120     H      0.033430000000     0.779460000000     0.452820000000     0.0380296  
H121     H      0.937870000000     0.604430000000     0.491300000000     0.0260022  
H122     H      0.989120000000     0.104660000000     0.544100000000     0.025591   
H123     H      0.942850000000     0.393310000000     0.496310000000     0.0271832  
H124     H      0.026820000000     0.215710000000     0.447460000000     0.0381905  
H125     H      0.957180000000     0.281460000000     0.533190000000     0.0377321  
H126     H      0.939990000000     0.331200000000     0.496540000000     0.0539784  
H127     H      0.954190000000     0.218230000000     0.532590000000     0.0379512  
H128     H      0.050250000000     0.325420000000     0.484040000000     0.0581066  
H129     H      0.990570000000     0.167500000000     0.545390000000     0.0532154  
H130     H      0.986400000000     0.169060000000     0.433730000000     0.0533879  
H131     H      0.028950000000     0.278800000000     0.447360000000     0.0379553  
H132     H      0.985480000000     0.106390000000     0.433260000000     0.0262436  
N1       N      0.901060000000     0.483760000000     0.992800000000    -0.199498   
N2       N      0.605050000000     0.493330000000     0.994300000000    -0.198752   
N3       N      0.400930000000     0.496400000000     0.999670000000    -0.199421   
N4       N      0.105110000000     0.490800000000     0.990230000000    -0.198854   
N5       N      0.504910000000     0.597470000000     0.993830000000    -0.199566   
N6       N      0.494180000000     0.893400000000     0.000320000000    -0.198874   
N7       N      0.486380000000     0.097500000000     0.001460000000    -0.199262   
N8       N      0.500720000000     0.393380000000     0.999570000000    -0.198717   
N9       N      0.485280000000     0.998500000000     0.602790000000    -0.199561   
N10      N      0.489220000000     0.995740000000     0.898910000000    -0.19886    
N11      N      0.491140000000     0.987080000000     0.398510000000    -0.199541   
N12      N      0.490660000000     0.994050000000     0.102540000000    -0.198923   
N13      N      0.992410000000     0.496610000000     0.593620000000    -0.199453   
N14      N      0.001900000000     0.489340000000     0.889500000000    -0.198894   
N15      N      0.004860000000     0.485810000000     0.093680000000    -0.199256   
N16      N      0.999110000000     0.499610000000     0.389530000000    -0.198802   
N17      N      0.090370000000     0.000110000000     0.483040000000    -0.199041   
N18      N      0.386270000000     0.995520000000     0.497100000000    -0.198765   
N19      N      0.590340000000     0.989650000000     0.502880000000    -0.199392   
N20      N      0.886270000000     0.997840000000     0.490570000000    -0.19887    
N21      N      0.989740000000     0.896720000000     0.483930000000    -0.199535   
N22      N      0.993380000000     0.600760000000     0.492610000000    -0.198888   
N23      N      0.998240000000     0.396660000000     0.489740000000    -0.199578   
N24      N      0.987380000000     0.100820000000     0.488620000000    -0.198854   
Ni1      Ni     0.986840000000     0.999750000000     0.455770000000     1.00724    
Ni2      Ni     0.989190000000     0.998290000000     0.517160000000     1.0003     
Ni3      Ni     0.965040000000     0.498190000000     0.490260000000     1.00319    
Ni4      Ni     0.026440000000     0.499720000000     0.492370000000     1.0049     
Ni5      Ni     0.488980000000     0.023280000000     0.498870000000     1.00272    
Ni6      Ni     0.487060000000     0.962040000000     0.502420000000     1.00576    
Ni7      Ni     0.520800000000     0.996370000000     0.000540000000     1.00169    
Ni8      Ni     0.459310000000     0.993940000000     0.000940000000     1.00519    
Ni9      Ni     0.002250000000     0.518070000000     0.991880000000     0.999409   
Ni10     Ni     0.004440000000     0.456670000000     0.990720000000     1.00802    
Ni11     Ni     0.504120000000     0.496050000000     0.027520000000     1.00425    
Ni12     Ni     0.502390000000     0.494290000000     0.966120000000     1.00335    
O1       O      0.036530000000     0.000360000000     0.455970000000    -0.445457   
O2       O      0.937280000000     0.999050000000     0.459640000000    -0.44912    
O3       O      0.986330000000     0.049220000000     0.458870000000    -0.451006   
O4       O      0.987580000000     0.950200000000     0.456580000000    -0.447613   
O5       O      0.989630000000     0.948670000000     0.513830000000    -0.448999   
O6       O      0.988620000000     0.048000000000     0.516380000000    -0.44901    
O7       O      0.939600000000     0.997800000000     0.517150000000    -0.450842   
O8       O      0.038650000000     0.998880000000     0.513200000000    -0.450338   
O9       O      0.968390000000     0.448610000000     0.489600000000    -0.449112   
O10      O      0.965750000000     0.547890000000     0.491110000000    -0.44891    
O11      O      0.968660000000     0.499010000000     0.440770000000    -0.450362   
O12      O      0.965400000000     0.497370000000     0.539850000000    -0.447225   
O13      O      0.022630000000     0.498890000000     0.541910000000    -0.449192   
O14      O      0.026180000000     0.500330000000     0.442690000000    -0.449372   
O15      O      0.023270000000     0.549210000000     0.492990000000    -0.451187   
O16      O      0.025650000000     0.450140000000     0.491590000000    -0.447442   
O17      O      0.490360000000     0.018360000000     0.449530000000    -0.450676   
O18      O      0.487480000000     0.024190000000     0.548460000000    -0.446624   
O19      O      0.538540000000     0.019710000000     0.500470000000    -0.448756   
O20      O      0.439320000000     0.022840000000     0.497420000000    -0.449183   
O21      O      0.437580000000     0.965410000000     0.500800000000    -0.450142   
O22      O      0.536630000000     0.962560000000     0.503730000000    -0.447154   
O23      O      0.485760000000     0.967000000000     0.551840000000    -0.449342   
O24      O      0.488560000000     0.961170000000     0.452780000000    -0.445855   
O25      O      0.519140000000     0.995900000000     0.050180000000    -0.450216   
O26      O      0.518450000000     0.996630000000     0.950900000000    -0.449788   
O27      O      0.516730000000     0.045860000000     0.000940000000    -0.450019   
O28      O      0.520800000000     0.946740000000     0.000210000000    -0.450542   
O29      O      0.463270000000     0.944420000000     0.000650000000    -0.4501     
O30      O      0.459470000000     0.043610000000     0.001240000000    -0.44623    
O31      O      0.460930000000     0.994320000000     0.951350000000    -0.450517   
O32      O      0.461610000000     0.993710000000     0.050510000000    -0.450366   
O33      O      0.051950000000     0.517890000000     0.991190000000    -0.449184   
O34      O      0.952690000000     0.514180000000     0.992460000000    -0.449219   
O35      O      0.003000000000     0.515070000000     0.041440000000    -0.449795   
O36      O      0.001660000000     0.517080000000     0.942260000000    -0.450177   
O37      O      0.003610000000     0.459550000000     0.941140000000    -0.449669   
O38      O      0.005130000000     0.457830000000     0.040360000000    -0.446281   
O39      O      0.954850000000     0.456920000000     0.991500000000    -0.447243   
O40      O      0.053890000000     0.460360000000     0.990070000000    -0.450888   
O41      O      0.503220000000     0.446330000000     0.027000000000    -0.448793   
O42      O      0.504860000000     0.545640000000     0.023950000000    -0.448771   
O43      O      0.454570000000     0.496790000000     0.026870000000    -0.447791   
O44      O      0.553590000000     0.495140000000     0.024250000000    -0.451101   
O45      O      0.552110000000     0.493400000000     0.966720000000    -0.448629   
O46      O      0.452800000000     0.495310000000     0.969620000000    -0.448619   
O47      O      0.503380000000     0.543850000000     0.966690000000    -0.447524   
O48      O      0.501470000000     0.444810000000     0.969480000000    -0.450732   
S1       S      0.898420000000     0.416300000000     0.003310000000    -0.0154308  
S2       S      0.397590000000     0.491210000000     0.067760000000    -0.016886   
S3       S      0.515470000000     0.600480000000     0.926410000000    -0.0173961  
S4       S      0.418330000000     0.100640000000     0.996100000000    -0.016919   
S5       S      0.473820000000     0.065810000000     0.603890000000    -0.0169183  
S6       S      0.501300000000     0.919580000000     0.397050000000    -0.0154471  
S7       S      0.924660000000     0.488040000000     0.596530000000    -0.0172654  
S8       S      0.014020000000     0.418240000000     0.098020000000    -0.0158322  
S9       S      0.093750000000     0.003890000000     0.414910000000    -0.0155827  
S10      S      0.593500000000     0.922320000000     0.514160000000    -0.016222   
S11      S      0.999760000000     0.893560000000     0.416410000000    -0.0153554  
S12      S      0.065680000000     0.393340000000     0.479400000000    -0.0170556  


