data_structure

_audit_creation_method RASPA-1.0
_audit_creation_date 2023-5-19
_audit_author_name 'Poobodin Mano'

_cell_length_a    38.5892
_cell_length_b    38.5853
_cell_length_c    38.5812
_cell_angle_alpha 90
_cell_angle_beta  90
_cell_angle_gamma 90
_cell_volume      57446.5

_symmetry_cell_setting          triclinic
_symmetry_space_group_name_Hall 'P 1'
_symmetry_space_group_name_H-M  'P 1'
_symmetry_Int_Tables_number     1

_symmetry_equiv_pos_as_xyz 'x,y,z'

loop_
_atom_site_label
_atom_site_type_symbol
_atom_site_fract_x
_atom_site_fract_y
_atom_site_fract_z
_atom_site_charge
C1       C      0.995660000000     0.062320000000     0.496080000000     0.435311   
C2       C      0.994840000000     0.929530000000     0.491300000000     0.435127   
C3       C      0.928700000000     0.996390000000     0.494900000000     0.435304   
C4       C      0.061400000000     0.995580000000     0.492210000000     0.435436   
C5       C      0.001850000000     0.495120000000     0.563260000000     0.435048   
C6       C      0.001510000000     0.496840000000     0.430390000000     0.435113   
C7       C      0.001680000000     0.429680000000     0.496050000000     0.435817   
C8       C      0.001170000000     0.562260000000     0.497400000000     0.43557    
C9       C      0.561310000000     0.004900000000     0.497700000000     0.435325   
C10      C      0.428630000000     0.001670000000     0.498090000000     0.436062   
C11      C      0.494490000000     0.003110000000     0.431430000000     0.434957   
C12      C      0.494910000000     0.003470000000     0.564340000000     0.435064   
C13      C      0.488540000000     0.056820000000     0.997610000000     0.435007   
C14      C      0.487960000000     0.923930000000     0.997680000000     0.434664   
C15      C      0.488230000000     0.990450000000     0.064170000000     0.435307   
C16      C      0.488740000000     0.990470000000     0.931540000000     0.435464   
C17      C      0.994970000000     0.498300000000     0.063150000000     0.435397   
C18      C      0.995540000000     0.496390000000     0.930580000000     0.435405   
C19      C      0.061670000000     0.496050000000     0.997200000000     0.434871   
C20      C      0.928980000000     0.498770000000     0.996560000000     0.434823   
C21      C      0.429060000000     0.490210000000     0.991570000000     0.434827   
C22      C      0.561760000000     0.490610000000     0.993800000000     0.434857   
C23      C      0.495830000000     0.424040000000     0.992610000000     0.435332   
C24      C      0.495330000000     0.556630000000     0.993010000000     0.435276   
C25      C      0.837640000000     0.528630000000     0.994620000000    -0.0966379  
C26      C      0.614950000000     0.490560000000     0.025210000000     0.0754495  
C27      C      0.615660000000     0.491830000000     0.963770000000     0.0756118  
C28      C      0.651140000000     0.491160000000     0.026090000000    -0.094131   
C29      C      0.727470000000     0.472400000000     0.018390000000    -0.0348151  
C30      C      0.763670000000     0.473450000000     0.018610000000    -0.0343403  
C31      C      0.708490000000     0.493460000000     0.995500000000    -0.00666805 
C32      C      0.651830000000     0.492590000000     0.963730000000    -0.0942209  
C33      C      0.781680000000     0.495710000000     0.996090000000    -0.00722362 
C34      C      0.839650000000     0.466580000000     0.998250000000    -0.0949096  
C35      C      0.762700000000     0.516810000000     0.973250000000    -0.0344765  
C36      C      0.875740000000     0.468190000000     0.998160000000     0.0744152  
C37      C      0.873960000000     0.529680000000     0.994700000000     0.0894457  
C38      C      0.726520000000     0.515650000000     0.972920000000    -0.0346327  
C39      C      0.889450000000     0.563800000000     0.992590000000     0.0435035  
C40      C      0.670020000000     0.492320000000     0.995120000000     0.0510626  
C41      C      0.820150000000     0.496970000000     0.996380000000     0.0529645  
C42      C      0.337680000000     0.492240000000     0.961780000000    -0.0964538  
C43      C      0.115770000000     0.525770000000     0.996220000000     0.0758601  
C44      C      0.114710000000     0.464390000000     0.998490000000     0.0755574  
C45      C      0.151960000000     0.525610000000     0.996000000000    -0.094117   
C46      C      0.227090000000     0.470790000000     0.017980000000    -0.0345079  
C47      C      0.263310000000     0.470180000000     0.017210000000    -0.0341904  
C48      C      0.208480000000     0.493500000000     0.996400000000    -0.00647743 
C49      C      0.150900000000     0.463300000000     0.998460000000    -0.0939789  
C50      C      0.281710000000     0.492120000000     0.994680000000    -0.00698152 
C51      C      0.339690000000     0.489550000000     0.023870000000    -0.0945004  
C52      C      0.263090000000     0.514850000000     0.973140000000    -0.0342098  
C53      C      0.375810000000     0.489220000000     0.022240000000     0.0745602  
C54      C      0.374000000000     0.491740000000     0.960700000000     0.089503   
C55      C      0.226910000000     0.515570000000     0.974030000000    -0.0343904  
C56      C      0.389450000000     0.492970000000     0.926510000000     0.0439568  
C57      C      0.169980000000     0.494140000000     0.997060000000     0.0513378  
C58      C      0.320190000000     0.491240000000     0.993470000000     0.0530514  
C59      C      0.459150000000     0.832280000000     0.994550000000    -0.0965357  
C60      C      0.495080000000     0.610350000000     0.962530000000     0.0759353  
C61      C      0.495630000000     0.610060000000     0.023980000000     0.0758198  
C62      C      0.494890000000     0.646550000000     0.962250000000    -0.0939092  
C63      C      0.472670000000     0.721710000000     0.971110000000    -0.0344834  
C64      C      0.471620000000     0.757900000000     0.971730000000    -0.0342787  
C65      C      0.494580000000     0.703440000000     0.993760000000    -0.00652353 
C66      C      0.495630000000     0.646250000000     0.024630000000    -0.0940255  
C67      C      0.492570000000     0.776660000000     0.994880000000    -0.00715071 
C68      C      0.521170000000     0.834900000000     0.998080000000    -0.094753   
C69      C      0.514750000000     0.758420000000     0.017300000000    -0.0342906  
C70      C      0.519170000000     0.871000000000     0.998630000000     0.0741414  
C71      C      0.457700000000     0.868580000000     0.995320000000     0.0896813  
C72      C      0.515660000000     0.722200000000     0.016820000000    -0.0347206  
C73      C      0.423380000000     0.883700000000     0.993670000000     0.0445206  
C74      C      0.495160000000     0.664950000000     0.993530000000     0.0512087  
C75      C      0.490990000000     0.815110000000     0.995860000000     0.0530687  
C76      C      0.460420000000     0.148650000000     0.994030000000    -0.096524   
C77      C      0.496050000000     0.370470000000     0.961860000000     0.0760157  
C78      C      0.496610000000     0.370470000000     0.023310000000     0.0758148  
C79      C      0.496180000000     0.334270000000     0.961410000000    -0.0937944  
C80      C      0.517360000000     0.258500000000     0.015730000000    -0.0346457  
C81      C      0.516440000000     0.222280000000     0.016260000000    -0.0342186  
C82      C      0.496230000000     0.277240000000     0.992690000000    -0.00645386 
C83      C      0.496930000000     0.334290000000     0.023790000000    -0.0940927  
C84      C      0.494200000000     0.204030000000     0.993920000000    -0.00708446 
C85      C      0.522420000000     0.145610000000     0.997440000000    -0.0946502  
C86      C      0.473280000000     0.222770000000     0.970700000000    -0.034126   
C87      C      0.520160000000     0.109520000000     0.998250000000     0.0744378  
C88      C      0.458700000000     0.112380000000     0.995050000000     0.0897308  
C89      C      0.474340000000     0.258950000000     0.970040000000    -0.0343957  
C90      C      0.424260000000     0.097520000000     0.993630000000     0.0445339  
C91      C      0.496600000000     0.315730000000     0.992610000000     0.0512682  
C92      C      0.492380000000     0.165600000000     0.995130000000     0.0532228  
C93      C      0.491770000000     0.031540000000     0.656270000000    -0.0961426  
C94      C      0.458470000000     0.991990000000     0.877700000000     0.0765058  
C95      C      0.519880000000     0.990370000000     0.878240000000     0.0760906  
C96      C      0.458360000000     0.992960000000     0.841500000000    -0.0934346  
C97      C      0.513140000000     0.973040000000     0.765720000000    -0.0346557  
C98      C      0.513890000000     0.974700000000     0.729540000000    -0.0342543  
C99      C      0.490190000000     0.993990000000     0.784760000000    -0.00626871 
C100     C      0.520700000000     0.991140000000     0.842070000000    -0.0940473  
C101     C      0.491840000000     0.997470000000     0.711590000000    -0.00688147 
C102     C      0.495040000000     0.969530000000     0.653080000000    -0.0947584  
C103     C      0.468830000000     0.018360000000     0.730620000000    -0.03406    
C104     C      0.495750000000     0.971860000000     0.617020000000     0.074605   
C105     C      0.492670000000     0.033320000000     0.619960000000     0.0899317  
C106     C      0.467970000000     0.016580000000     0.766790000000    -0.0342227  
C107     C      0.491480000000     0.067780000000     0.605110000000     0.0461204  
C108     C      0.489720000000     0.992580000000     0.823240000000     0.0515111  
C109     C      0.492890000000     0.999530000000     0.673150000000     0.0532477  
C110     C      0.490690000000     0.030780000000     0.339400000000    -0.0960691  
C111     C      0.519000000000     0.990080000000     0.117670000000     0.075929   
C112     C      0.457590000000     0.991790000000     0.117830000000     0.0763603  
C113     C      0.519600000000     0.990630000000     0.153850000000    -0.094096   
C114     C      0.511670000000     0.972110000000     0.230030000000    -0.0346817  
C115     C      0.512410000000     0.973710000000     0.266220000000    -0.0342156  
C116     C      0.488800000000     0.993160000000     0.211010000000    -0.00624715 
C117     C      0.457270000000     0.992540000000     0.154050000000    -0.0933373  
C118     C      0.490420000000     0.996520000000     0.284200000000    -0.00686263 
C119     C      0.493910000000     0.968780000000     0.342830000000    -0.0945438  
C120     C      0.467420000000     0.017430000000     0.265180000000    -0.0340131  
C121     C      0.494880000000     0.971260000000     0.378880000000     0.0746535  
C122     C      0.491870000000     0.032710000000     0.375690000000     0.0898909  
C123     C      0.466560000000     0.015710000000     0.229010000000    -0.0342213  
C124     C      0.490870000000     0.067230000000     0.390390000000     0.0461174  
C125     C      0.488520000000     0.991980000000     0.172510000000     0.0514192  
C126     C      0.491650000000     0.998700000000     0.322630000000     0.053154   
C127     C      0.030620000000     0.492250000000     0.654920000000    -0.0964499  
C128     C      0.995470000000     0.464870000000     0.877480000000     0.0759059  
C129     C      0.995150000000     0.526300000000     0.876560000000     0.0761608  
C130     C      0.995460000000     0.463860000000     0.841300000000    -0.0942219  
C131     C      0.017280000000     0.471030000000     0.765890000000    -0.0343091  
C132     C      0.018160000000     0.470870000000     0.729700000000    -0.0342717  
C133     C      0.995600000000     0.494190000000     0.783790000000    -0.00649222 
C134     C      0.994960000000     0.526220000000     0.840360000000    -0.0938904  
C135     C      0.997270000000     0.493780000000     0.710560000000    -0.00698706 
C136     C      0.968630000000     0.496180000000     0.652290000000    -0.0946708  
C137     C      0.975310000000     0.516700000000     0.728430000000    -0.0343125  
C138     C      0.970610000000     0.496310000000     0.616180000000     0.0743384  
C139     C      0.032060000000     0.492580000000     0.618620000000     0.0897957  
C140     C      0.974560000000     0.516970000000     0.764650000000    -0.0346685  
C141     C      0.066340000000     0.490230000000     0.603510000000     0.0444997  
C142     C      0.995210000000     0.494760000000     0.822280000000     0.0514508  
C143     C      0.998810000000     0.494060000000     0.672090000000     0.0531133  
C144     C      0.029830000000     0.499930000000     0.338610000000    -0.0965436  
C145     C      0.995560000000     0.529710000000     0.116320000000     0.0761841  
C146     C      0.993190000000     0.468320000000     0.117090000000     0.0757811  
C147     C      0.995360000000     0.530630000000     0.152510000000    -0.0939648  
C148     C      0.016600000000     0.522560000000     0.227980000000    -0.0343518  
C149     C      0.017560000000     0.522370000000     0.264170000000    -0.0342319  
C150     C      0.994300000000     0.500110000000     0.209940000000    -0.00646473 
C151     C      0.992820000000     0.468310000000     0.153280000000    -0.0942396  
C152     C      0.996150000000     0.499810000000     0.283160000000    -0.00701102 
C153     C      0.967780000000     0.497220000000     0.341560000000    -0.0946825  
C154     C      0.973520000000     0.477670000000     0.265140000000    -0.0343537  
C155     C      0.969970000000     0.496580000000     0.377650000000     0.0743667  
C156     C      0.031470000000     0.499130000000     0.374890000000     0.0898032  
C157     C      0.972670000000     0.477760000000     0.228920000000    -0.0346944  
C158     C      0.065900000000     0.500300000000     0.389800000000     0.0444947  
C159     C      0.994000000000     0.499700000000     0.171450000000     0.0514     
C160     C      0.997890000000     0.499020000000     0.321610000000     0.0531309  
C161     C      0.152680000000     0.997730000000     0.462210000000    -0.0961449  
C162     C      0.374440000000     0.031220000000     0.497420000000     0.0768535  
C163     C      0.375720000000     0.969800000000     0.498730000000     0.0761725  
C164     C      0.338270000000     0.030930000000     0.497070000000    -0.0934102  
C165     C      0.263320000000     0.975560000000     0.518040000000    -0.0344013  
C166     C      0.227110000000     0.974900000000     0.517230000000    -0.0340575  
C167     C      0.281900000000     0.998620000000     0.496800000000    -0.00613532 
C168     C      0.339550000000     0.968580000000     0.498550000000    -0.0939456  
C169     C      0.208700000000     0.997140000000     0.495010000000    -0.00666824 
C170     C      0.150810000000     0.994230000000     0.524270000000    -0.0942679  
C171     C      0.227280000000     0.020190000000     0.473780000000    -0.0338711  
C172     C      0.114700000000     0.993970000000     0.522720000000     0.0753793  
C173     C      0.116360000000     0.997290000000     0.461210000000     0.0902346  
C174     C      0.263460000000     0.020960000000     0.474710000000    -0.034101   
C175     C      0.100830000000     0.998700000000     0.427070000000     0.0459869  
C176     C      0.320370000000     0.999370000000     0.497580000000     0.0516972  
C177     C      0.170240000000     0.996300000000     0.493850000000     0.0535549  
C178     C      0.652600000000     0.035060000000     0.496460000000    -0.095921   
C179     C      0.875570000000     0.995800000000     0.526450000000     0.0761078  
C180     C      0.874710000000     0.998650000000     0.465080000000     0.0763186  
C181     C      0.839380000000     0.996590000000     0.527450000000    -0.0936655  
C182     C      0.762900000000     0.978480000000     0.519550000000    -0.0344988  
C183     C      0.726690000000     0.979560000000     0.519790000000    -0.0343725  
C184     C      0.781920000000     0.999930000000     0.497070000000    -0.00634051 
C185     C      0.838540000000     0.999610000000     0.465150000000    -0.0938667  
C186     C      0.708690000000     0.002260000000     0.497680000000    -0.00666849 
C187     C      0.650760000000     0.972970000000     0.499260000000    -0.0946896  
C188     C      0.727720000000     0.023800000000     0.475300000000    -0.0342563  
C189     C      0.614660000000     0.974470000000     0.499070000000     0.074744   
C190     C      0.616260000000     0.036000000000     0.496420000000     0.0900677  
C191     C      0.763910000000     0.022610000000     0.474960000000    -0.0341547  
C192     C      0.600650000000     0.070090000000     0.494730000000     0.0472025  
C193     C      0.820410000000     0.998650000000     0.496570000000     0.0514716  
C194     C      0.670190000000     0.003430000000     0.497870000000     0.0532063  
C195     C      0.997630000000     0.838450000000     0.460550000000    -0.0961887  
C196     C      0.031360000000     0.616150000000     0.496220000000     0.0764281  
C197     C      0.969940000000     0.615480000000     0.497910000000     0.0759544  
C198     C      0.031380000000     0.652360000000     0.495550000000    -0.0933478  
C199     C      0.021450000000     0.727420000000     0.472890000000    -0.0343072  
C200     C      0.020510000000     0.763620000000     0.471760000000    -0.0340737  
C201     C      0.999380000000     0.709020000000     0.495290000000    -0.00631766 
C202     C      0.969040000000     0.651640000000     0.497430000000    -0.0941881  
C203     C      0.997630000000     0.782210000000     0.493160000000    -0.00691008 
C204     C      0.994930000000     0.839910000000     0.522670000000    -0.0947651  
C205     C      0.975690000000     0.763820000000     0.515680000000    -0.0343374  
C206     C      0.994300000000     0.876000000000     0.521360000000     0.0748867  
C207     C      0.996820000000     0.874810000000     0.459810000000     0.0898125  
C208     C      0.976500000000     0.727630000000     0.516680000000    -0.0346887  
C209     C      0.998130000000     0.890670000000     0.425820000000     0.0455253  
C210     C      0.999980000000     0.670540000000     0.496140000000     0.0514304  
C211     C      0.996700000000     0.820680000000     0.492110000000     0.0532141  
C212     C      0.999820000000     0.153160000000     0.527280000000    -0.0963314  
C213     C      0.032300000000     0.376010000000     0.495950000000     0.0765946  
C214     C      0.970880000000     0.376210000000     0.494830000000     0.0761494  
C215     C      0.032630000000     0.339800000000     0.495650000000    -0.0933443  
C216     C      0.023590000000     0.264090000000     0.516270000000    -0.0342886  
C217     C      0.022810000000     0.227880000000     0.516610000000    -0.0339118  
C218     C      0.001110000000     0.282870000000     0.494620000000    -0.00610503 
C219     C      0.970280000000     0.340050000000     0.494350000000    -0.0941998  
C220     C      0.999650000000     0.209640000000     0.495200000000    -0.00679732 
C221     C      0.996040000000     0.152160000000     0.465210000000    -0.0942773  
C222     C      0.977400000000     0.228410000000     0.473310000000    -0.0340862  
C223     C      0.995110000000     0.116040000000     0.466290000000     0.0751889  
C224     C      0.998710000000     0.116830000000     0.527800000000     0.0898031  
C225     C      0.978060000000     0.264620000000     0.473080000000    -0.0345919  
C226     C      0.000230000000     0.100800000000     0.561710000000     0.0441642  
C227     C      0.001370000000     0.321370000000     0.494800000000     0.0516052  
C228     C      0.998530000000     0.171160000000     0.495880000000     0.0533795  
H1       H      0.602680000000     0.492030000000     0.938850000000     0.027048   
H2       H      0.889410000000     0.443670000000     0.999560000000     0.0273717  
H3       H      0.712640000000     0.532440000000     0.955220000000     0.0390003  
H4       H      0.777570000000     0.457090000000     0.036710000000     0.0385522  
H5       H      0.827100000000     0.441480000000     0.999280000000     0.0541412  
H6       H      0.714340000000     0.454810000000     0.035880000000     0.0385613  
H7       H      0.822970000000     0.552610000000     0.993550000000     0.0586994  
H8       H      0.665430000000     0.493020000000     0.939170000000     0.0542582  
H9       H      0.664190000000     0.491280000000     0.050950000000     0.0539415  
H10      H      0.775820000000     0.533980000000     0.955350000000     0.0395725  
H11      H      0.601370000000     0.489890000000     0.049800000000     0.0262294  
H12      H      0.100990000000     0.439880000000     0.999370000000     0.0265917  
H13      H      0.389500000000     0.488080000000     0.046760000000     0.027631   
H14      H      0.213340000000     0.533140000000     0.956850000000     0.0394264  
H15      H      0.276900000000     0.452190000000     0.033930000000     0.0390869  
H16      H      0.327150000000     0.489040000000     0.048990000000     0.0545223  
H17      H      0.213650000000     0.453690000000     0.035730000000     0.0390347  
H18      H      0.323020000000     0.493060000000     0.937790000000     0.0591023  
H19      H      0.163810000000     0.438370000000     0.998930000000     0.0543815  
H20      H      0.165700000000     0.550080000000     0.995340000000     0.0545781  
H21      H      0.276520000000     0.532330000000     0.955750000000     0.0399669  
H22      H      0.102930000000     0.550750000000     0.995410000000     0.027174   
H23      H      0.495810000000     0.596660000000     0.048680000000     0.0264957  
H24      H      0.543520000000     0.884930000000     0.000210000000     0.0274371  
H25      H      0.533060000000     0.708870000000     0.034360000000     0.0387178  
H26      H      0.454520000000     0.771220000000     0.953890000000     0.039972   
H27      H      0.546390000000     0.822600000000     0.998860000000     0.0541592  
H28      H      0.455890000000     0.708010000000     0.953250000000     0.0395917  
H29      H      0.435330000000     0.817370000000     0.993300000000     0.0591994  
H30      H      0.495440000000     0.659460000000     0.049400000000     0.0542808  
H31      H      0.494900000000     0.660010000000     0.937620000000     0.054682   
H32      H      0.531020000000     0.772130000000     0.035610000000     0.0387445  
H33      H      0.494930000000     0.597190000000     0.937710000000     0.0280864  
H34      H      0.496690000000     0.383760000000     0.048070000000     0.0264899  
H35      H      0.544410000000     0.095410000000     0.999870000000     0.0274543  
H36      H      0.457530000000     0.272630000000     0.952200000000     0.0398157  
H37      H      0.532690000000     0.208580000000     0.034590000000     0.038912   
H38      H      0.547730000000     0.157740000000     0.998100000000     0.0543489  
H39      H      0.534750000000     0.271850000000     0.033260000000     0.038785   
H40      H      0.436700000000     0.163720000000     0.992750000000     0.0592652  
H41      H      0.496840000000     0.320970000000     0.048500000000     0.0543693  
H42      H      0.496280000000     0.320910000000     0.936710000000     0.0549126  
H43      H      0.456140000000     0.209420000000     0.952910000000     0.0401734  
H44      H      0.495790000000     0.383760000000     0.937100000000     0.0281614  
H45      H      0.544510000000     0.989490000000     0.891730000000     0.0265567  
H46      H      0.497230000000     0.947610000000     0.602900000000     0.0274575  
H47      H      0.450220000000     0.033280000000     0.780720000000     0.0399978  
H48      H      0.532090000000     0.958480000000     0.715640000000     0.0388394  
H49      H      0.495650000000     0.944180000000     0.665120000000     0.0543518  
H50      H      0.530360000000     0.955140000000     0.778790000000     0.0388525  
H51      H      0.490620000000     0.055230000000     0.671390000000     0.059604   
H52      H      0.545540000000     0.991210000000     0.828990000000     0.054346   
H53      H      0.433800000000     0.993650000000     0.827930000000     0.0555025  
H54      H      0.451270000000     0.035910000000     0.717530000000     0.0403594  
H55      H      0.433600000000     0.992310000000     0.890780000000     0.0299225  
H56      H      0.432820000000     0.992220000000     0.104590000000     0.0296451  
H57      H      0.496440000000     0.947070000000     0.393090000000     0.0276005  
H58      H      0.448850000000     0.032480000000     0.215100000000     0.0399696  
H59      H      0.530600000000     0.957450000000     0.280100000000     0.0388968  
H60      H      0.494410000000     0.943380000000     0.330880000000     0.0544455  
H61      H      0.528890000000     0.954230000000     0.216940000000     0.0388657  
H62      H      0.489480000000     0.054410000000     0.324190000000     0.0594887  
H63      H      0.432630000000     0.993200000000     0.167480000000     0.0555041  
H64      H      0.544360000000     0.990590000000     0.167070000000     0.0542549  
H65      H      0.449900000000     0.035010000000     0.278300000000     0.0403394  
H66      H      0.543720000000     0.989250000000     0.104340000000     0.0264507  
H67      H      0.995110000000     0.551260000000     0.889470000000     0.0281435  
H68      H      0.946270000000     0.497940000000     0.602230000000     0.0273816  
H69      H      0.957330000000     0.534890000000     0.777690000000     0.0390836  
H70      H      0.035090000000     0.452660000000     0.716670000000     0.0400468  
H71      H      0.943420000000     0.497300000000     0.664600000000     0.0542882  
H72      H      0.034020000000     0.453350000000     0.779880000000     0.0393634  
H73      H      0.054450000000     0.490990000000     0.669830000000     0.0592384  
H74      H      0.995180000000     0.550720000000     0.826650000000     0.0548266  
H75      H      0.995270000000     0.438960000000     0.828340000000     0.0543772  
H76      H      0.959110000000     0.534830000000     0.714410000000     0.0388652  
H77      H      0.995580000000     0.440310000000     0.891140000000     0.0265693  
H78      H      0.992420000000     0.443400000000     0.104120000000     0.0264073  
H79      H      0.945680000000     0.495310000000     0.391710000000     0.027369   
H80      H      0.954950000000     0.460410000000     0.215770000000     0.0387023  
H81      H      0.035000000000     0.540010000000     0.277310000000     0.0400059  
H82      H      0.942480000000     0.496770000000     0.329390000000     0.0542366  
H83      H      0.033800000000     0.539880000000     0.214120000000     0.0394244  
H84      H      0.053590000000     0.500830000000     0.323580000000     0.0591742  
H85      H      0.992190000000     0.443780000000     0.166910000000     0.0542216  
H86      H      0.995910000000     0.555490000000     0.165540000000     0.05486    
H87      H      0.956900000000     0.459820000000     0.279030000000     0.0387348  
H88      H      0.996560000000     0.554280000000     0.102720000000     0.0280437  
H89      H      0.389530000000     0.945330000000     0.499280000000     0.0265934  
H90      H      0.101080000000     0.992570000000     0.547260000000     0.0293697  
H91      H      0.277010000000     0.038790000000     0.457790000000     0.0401843  
H92      H      0.213530000000     0.956670000000     0.533690000000     0.0393521  
H93      H      0.163400000000     0.993380000000     0.549350000000     0.05535    
H94      H      0.276770000000     0.958250000000     0.535570000000     0.0392369  
H95      H      0.167300000000     0.998800000000     0.438200000000     0.0596317  
H96      H      0.326720000000     0.943610000000     0.498600000000     0.0545543  
H97      H      0.324440000000     0.055350000000     0.496750000000     0.0559323  
H98      H      0.213840000000     0.037890000000     0.456640000000     0.0405781  
H99      H      0.387200000000     0.056250000000     0.497040000000     0.0304588  
H100     H      0.887620000000     0.999420000000     0.440130000000     0.0284879  
H101     H      0.601070000000     0.949890000000     0.500080000000     0.0273759  
H102     H      0.777800000000     0.039730000000     0.457580000000     0.0395505  
H103     H      0.712780000000     0.962850000000     0.537540000000     0.0388701  
H104     H      0.663370000000     0.947890000000     0.499980000000     0.0542075  
H105     H      0.776000000000     0.960500000000     0.536680000000     0.038824   
H106     H      0.667190000000     0.059100000000     0.495770000000     0.0596671  
H107     H      0.824890000000     0.000730000000     0.440650000000     0.0549664  
H108     H      0.826400000000     0.996140000000     0.552340000000     0.0547752  
H109     H      0.714630000000     0.041320000000     0.457710000000     0.0403051  
H110     H      0.889220000000     0.994420000000     0.550980000000     0.0279242  
H111     H      0.945340000000     0.601940000000     0.498710000000     0.0264301  
H112     H      0.993040000000     0.889410000000     0.546030000000     0.0280747  
H113     H      0.959400000000     0.714220000000     0.534450000000     0.0387645  
H114     H      0.037980000000     0.777070000000     0.454380000000     0.0404524  
H115     H      0.994520000000     0.827170000000     0.547690000000     0.0545991  
H116     H      0.039140000000     0.713810000000     0.455870000000     0.0399424  
H117     H      0.998610000000     0.823990000000     0.436450000000     0.059384   
H118     H      0.944180000000     0.664660000000     0.497530000000     0.0541988  
H119     H      0.055910000000     0.666010000000     0.494940000000     0.0554143  
H120     H      0.957580000000     0.777390000000     0.532290000000     0.0387704  
H121     H      0.056240000000     0.603130000000     0.495770000000     0.0296397  
H122     H      0.946150000000     0.389570000000     0.494600000000     0.0265902  
H123     H      0.993320000000     0.102780000000     0.441580000000     0.029682   
H124     H      0.960660000000     0.278340000000     0.455850000000     0.0390605  
H125     H      0.040530000000     0.214140000000     0.533500000000     0.040357   
H126     H      0.995290000000     0.165080000000     0.440300000000     0.055325   
H127     H      0.041430000000     0.277390000000     0.533380000000     0.0400102  
H128     H      0.001270000000     0.167440000000     0.551470000000     0.0592079  
H129     H      0.945520000000     0.326830000000     0.494150000000     0.0544404  
H130     H      0.057280000000     0.326360000000     0.495660000000     0.0556614  
H131     H      0.959080000000     0.215120000000     0.456700000000     0.0391342  
H132     H      0.057090000000     0.389230000000     0.496500000000     0.0298937  
N1       N      0.893180000000     0.499300000000     0.996450000000    -0.197223   
N2       N      0.597320000000     0.490960000000     0.994280000000    -0.198747   
N3       N      0.903720000000     0.595870000000     0.990580000000    -0.0986555  
N4       N      0.393240000000     0.490360000000     0.991100000000    -0.197041   
N5       N      0.097240000000     0.495400000000     0.997330000000    -0.198566   
N6       N      0.403680000000     0.494150000000     0.894380000000    -0.0983611  
N7       N      0.487860000000     0.888110000000     0.997250000000    -0.197008   
N8       N      0.495340000000     0.592210000000     0.993170000000    -0.198514   
N9       N      0.391130000000     0.897600000000     0.992100000000    -0.0971506  
N10      N      0.488730000000     0.092630000000     0.997030000000    -0.197089   
N11      N      0.496160000000     0.388470000000     0.992580000000    -0.198595   
N12      N      0.391890000000     0.083870000000     0.992280000000    -0.0972183  
N13      N      0.494500000000     0.003320000000     0.600170000000    -0.196801   
N14      N      0.489010000000     0.990870000000     0.895970000000    -0.198293   
N15      N      0.490370000000     0.100150000000     0.591440000000    -0.0945602  
N16      N      0.493810000000     0.002790000000     0.395600000000    -0.196703   
N17      N      0.488240000000     0.990720000000     0.099750000000    -0.198262   
N18      N      0.489930000000     0.099670000000     0.403920000000    -0.0945275  
N19      N      0.001910000000     0.494640000000     0.599080000000    -0.197058   
N20      N      0.995410000000     0.495860000000     0.895010000000    -0.198598   
N21      N      0.098560000000     0.487990000000     0.589600000000    -0.0970846  
N22      N      0.001390000000     0.497500000000     0.394580000000    -0.197137   
N23      N      0.994580000000     0.498790000000     0.098720000000    -0.198618   
N24      N      0.098250000000     0.501420000000     0.403520000000    -0.0972249  
N25      N      0.097210000000     0.995590000000     0.491640000000    -0.196701   
N26      N      0.393070000000     0.000880000000     0.498110000000    -0.198303   
N27      N      0.086510000000     0.000020000000     0.394980000000    -0.0952454  
N28      N      0.597130000000     0.005540000000     0.497710000000    -0.196687   
N29      N      0.893130000000     0.996890000000     0.495500000000    -0.19822    
N30      N      0.586260000000     0.102130000000     0.493120000000    -0.0929784  
N31      N      0.995250000000     0.893730000000     0.490380000000    -0.19694    
N32      N      0.000860000000     0.597830000000     0.497260000000    -0.198329   
N33      N      0.999390000000     0.905300000000     0.393870000000    -0.0952208  
N34      N      0.996440000000     0.098110000000     0.497140000000    -0.196881   
N35      N      0.001650000000     0.394110000000     0.495610000000    -0.198338   
N36      N      0.001680000000     0.086020000000     0.593580000000    -0.0981898  
Ni1      Ni     0.994390000000     0.997020000000     0.462940000000     1.01675    
Ni2      Ni     0.995590000000     0.994820000000     0.524350000000     1.00651    
Ni3      Ni     0.970750000000     0.495850000000     0.496900000000     0.998991   
Ni4      Ni     0.032270000000     0.496080000000     0.496750000000     1.02031    
Ni5      Ni     0.495640000000     0.972510000000     0.497980000000     0.995939   
Ni6      Ni     0.494140000000     0.033950000000     0.497800000000     1.02636    
Ni7      Ni     0.457650000000     0.990520000000     0.997720000000     1.01995    
Ni8      Ni     0.519160000000     0.990230000000     0.997980000000     0.997979   
Ni9      Ni     0.994770000000     0.466570000000     0.997330000000     1.00132    
Ni10     Ni     0.996010000000     0.528130000000     0.996420000000     1.01222    
Ni11     Ni     0.495980000000     0.490440000000     0.961990000000     1.01267    
Ni12     Ni     0.495000000000     0.490230000000     0.023570000000     1.00089    
O1       O      0.994680000000     0.046570000000     0.466750000000    -0.448007   
O2       O      0.994310000000     0.947320000000     0.463230000000    -0.440928   
O3       O      0.944850000000     0.997170000000     0.465830000000    -0.449359   
O4       O      0.043970000000     0.996790000000     0.463960000000    -0.441897   
O5       O      0.045210000000     0.994500000000     0.521300000000    -0.446934   
O6       O      0.945890000000     0.995290000000     0.523380000000    -0.447513   
O7       O      0.995160000000     0.945340000000     0.520600000000    -0.449901   
O8       O      0.996060000000     0.044460000000     0.524090000000    -0.442248   
O9       O      0.972990000000     0.495310000000     0.546610000000    -0.44808    
O10      O      0.972740000000     0.496430000000     0.447180000000    -0.448175   
O11      O      0.972870000000     0.446290000000     0.496300000000    -0.450248   
O12      O      0.972490000000     0.545420000000     0.497450000000    -0.450274   
O13      O      0.030070000000     0.545760000000     0.497220000000    -0.446698   
O14      O      0.030450000000     0.446390000000     0.496220000000    -0.446695   
O15      O      0.030140000000     0.496670000000     0.447220000000    -0.444106   
O16      O      0.030390000000     0.495490000000     0.546290000000    -0.444155   
O17      O      0.545220000000     0.975750000000     0.497860000000    -0.448619   
O18      O      0.445950000000     0.973270000000     0.498150000000    -0.448793   
O19      O      0.495410000000     0.974410000000     0.448300000000    -0.448304   
O20      O      0.495710000000     0.974680000000     0.547620000000    -0.448676   
O21      O      0.494270000000     0.032060000000     0.547430000000    -0.44197    
O22      O      0.493980000000     0.031790000000     0.448190000000    -0.441884   
O23      O      0.444610000000     0.030830000000     0.497930000000    -0.448198   
O24      O      0.543780000000     0.033120000000     0.497650000000    -0.440901   
O25      O      0.459880000000     0.040040000000     0.997640000000    -0.443999   
O26      O      0.459440000000     0.940960000000     0.997670000000    -0.443761   
O27      O      0.459460000000     0.990570000000     0.047430000000    -0.446572   
O28      O      0.459840000000     0.990560000000     0.948050000000    -0.446433   
O29      O      0.517420000000     0.990230000000     0.948370000000    -0.449715   
O30      O      0.517040000000     0.990230000000     0.047560000000    -0.44986    
O31      O      0.516840000000     0.940530000000     0.997970000000    -0.447998   
O32      O      0.517270000000     0.039960000000     0.997940000000    -0.447846   
O33      O      0.994450000000     0.469280000000     0.046900000000    -0.450048   
O34      O      0.995100000000     0.467840000000     0.947670000000    -0.449571   
O35      O      0.044460000000     0.467570000000     0.997650000000    -0.449083   
O36      O      0.945170000000     0.469670000000     0.997010000000    -0.449063   
O37      O      0.946390000000     0.527070000000     0.996290000000    -0.442887   
O38      O      0.045570000000     0.525160000000     0.996570000000    -0.450282   
O39      O      0.996030000000     0.525420000000     0.946820000000    -0.448666   
O40      O      0.995820000000     0.526860000000     0.046090000000    -0.448608   
O41      O      0.446390000000     0.490310000000     0.963230000000    -0.443239   
O42      O      0.545530000000     0.490630000000     0.964760000000    -0.450796   
O43      O      0.496120000000     0.440770000000     0.963850000000    -0.448451   
O44      O      0.495770000000     0.540080000000     0.964150000000    -0.44851    
O45      O      0.494900000000     0.539860000000     0.021740000000    -0.449657   
O46      O      0.495260000000     0.440640000000     0.021440000000    -0.449909   
O47      O      0.544680000000     0.490400000000     0.022370000000    -0.449116   
O48      O      0.445340000000     0.490060000000     0.020630000000    -0.448258   


