data_structure

_audit_creation_method RASPA-1.0
_audit_creation_date 2023-5-19
_audit_author_name 'Poobodin Mano'

_cell_length_a    38.5721
_cell_length_b    38.5715
_cell_length_c    38.569
_cell_angle_alpha 90
_cell_angle_beta  90
_cell_angle_gamma 90
_cell_volume      57382.3

_symmetry_cell_setting          triclinic
_symmetry_space_group_name_Hall 'P 1'
_symmetry_space_group_name_H-M  'P 1'
_symmetry_Int_Tables_number     1

_symmetry_equiv_pos_as_xyz 'x,y,z'

loop_
_atom_site_label
_atom_site_type_symbol
_atom_site_fract_x
_atom_site_fract_y
_atom_site_fract_z
_atom_site_charge
C1       C      0.993390000000     0.063120000000     0.496880000000     0.434882   
C2       C      0.994580000000     0.930410000000     0.499240000000     0.444112   
C3       C      0.927420000000     0.996210000000     0.499560000000     0.444637   
C4       C      0.060200000000     0.997280000000     0.496490000000     0.443645   
C5       C      0.000160000000     0.563100000000     0.495570000000     0.434298   
C6       C      0.000820000000     0.430370000000     0.494330000000     0.445281   
C7       C      0.000660000000     0.497330000000     0.428590000000     0.443681   
C8       C      0.000600000000     0.496270000000     0.561420000000     0.444589   
C9       C      0.560090000000     0.994740000000     0.496840000000     0.435048   
C10      C      0.427450000000     0.994840000000     0.497120000000     0.434422   
C11      C      0.493450000000     0.993880000000     0.430550000000     0.444117   
C12      C      0.493840000000     0.995530000000     0.563270000000     0.434814   
C13      C      0.493010000000     0.996670000000     0.063260000000     0.43584    
C14      C      0.494650000000     0.996260000000     0.930540000000     0.443533   
C15      C      0.493670000000     0.062860000000     0.996600000000     0.444666   
C16      C      0.493570000000     0.930060000000     0.996990000000     0.44343    
C17      C      0.996830000000     0.495910000000     0.061350000000     0.434937   
C18      C      0.996690000000     0.495470000000     0.928700000000     0.435126   
C19      C      0.063230000000     0.494300000000     0.994940000000     0.443917   
C20      C      0.930450000000     0.497150000000     0.995200000000     0.444111   
C21      C      0.496990000000     0.430130000000     0.995640000000     0.434804   
C22      C      0.496980000000     0.562760000000     0.995890000000     0.43479    
C23      C      0.430570000000     0.496430000000     0.995910000000     0.434663   
C24      C      0.563200000000     0.496410000000     0.995630000000     0.434898   
C25      C      0.840040000000     0.528410000000     0.996900000000    -0.166588   
C26      C      0.616820000000     0.497050000000     0.026270000000     0.0749967  
C27      C      0.616740000000     0.495570000000     0.964810000000     0.0750579  
C28      C      0.653020000000     0.497120000000     0.026680000000    -0.0940738  
C29      C      0.728640000000     0.474680000000     0.972870000000    -0.0379581  
C30      C      0.764880000000     0.474810000000     0.972900000000    -0.0289435  
C31      C      0.710030000000     0.496430000000     0.995440000000    -0.00470047 
C32      C      0.652940000000     0.495440000000     0.964300000000    -0.09407    
C33      C      0.783290000000     0.496830000000     0.995350000000    -0.0193399  
C34      C      0.840600000000     0.466230000000     0.993680000000    -0.113846   
C35      C      0.764680000000     0.518610000000     0.017880000000    -0.0288758  
C36      C      0.876770000000     0.467010000000     0.993840000000     0.0850406  
C37      C      0.876340000000     0.528510000000     0.997050000000     0.24479    
C38      C      0.728460000000     0.518350000000     0.017970000000    -0.0378737  
C39      C      0.671530000000     0.496290000000     0.995470000000     0.0499493  
C40      C      0.821790000000     0.497140000000     0.995270000000     0.0825207  
C41      C      0.153770000000     0.463280000000     0.996370000000    -0.166235   
C42      C      0.376940000000     0.497340000000     0.965260000000     0.0750536  
C43      C      0.377010000000     0.495290000000     0.026700000000     0.0751234  
C44      C      0.340740000000     0.497310000000     0.964830000000    -0.0940738  
C45      C      0.265040000000     0.517830000000     0.973740000000    -0.0378171  
C46      C      0.228810000000     0.517550000000     0.973680000000    -0.029434   
C47      C      0.283700000000     0.495840000000     0.996030000000    -0.00473703 
C48      C      0.340800000000     0.495030000000     0.027190000000    -0.0938224  
C49      C      0.210430000000     0.495130000000     0.995750000000    -0.019124   
C50      C      0.153000000000     0.525500000000     0.994250000000    -0.113605   
C51      C      0.229080000000     0.473110000000     0.018020000000    -0.0289351  
C52      C      0.116840000000     0.524590000000     0.994110000000     0.0849758  
C53      C      0.117460000000     0.463030000000     0.995810000000     0.244904   
C54      C      0.265320000000     0.473540000000     0.018230000000    -0.0375669  
C55      C      0.322210000000     0.496090000000     0.996030000000     0.0500085  
C56      C      0.171920000000     0.494640000000     0.995490000000     0.082306   
C57      C      0.463800000000     0.839160000000     0.994890000000    -0.166637   
C58      C      0.497880000000     0.616330000000     0.026670000000     0.075085   
C59      C      0.496630000000     0.616370000000     0.965210000000     0.0750195  
C60      C      0.498090000000     0.652540000000     0.027150000000    -0.0939147  
C61      C      0.518660000000     0.728340000000     0.018670000000    -0.0378409  
C62      C      0.518260000000     0.764590000000     0.018730000000    -0.0288248  
C63      C      0.497140000000     0.709620000000     0.995970000000    -0.00466023 
C64      C      0.496650000000     0.652570000000     0.964770000000    -0.0941141  
C65      C      0.496190000000     0.782890000000     0.996240000000    -0.0192862  
C66      C      0.525940000000     0.840680000000     0.998490000000    -0.113753   
C67      C      0.474720000000     0.764160000000     0.973510000000    -0.0289665  
C68      C      0.524590000000     0.876850000000     0.998490000000     0.084514   
C69      C      0.463130000000     0.875440000000     0.994900000000     0.244738   
C70      C      0.475240000000     0.727950000000     0.973330000000    -0.0378597  
C71      C      0.497380000000     0.671110000000     0.995970000000     0.0499797  
C72      C      0.495340000000     0.821390000000     0.996590000000     0.0824086  
C73      C      0.464050000000     0.153780000000     0.993990000000    -0.166535   
C74      C      0.498070000000     0.376470000000     0.026230000000     0.0752228  
C75      C      0.496580000000     0.376630000000     0.964780000000     0.0750482  
C76      C      0.498350000000     0.340260000000     0.026600000000    -0.0940116  
C77      C      0.518940000000     0.264540000000     0.017920000000    -0.0377858  
C78      C      0.518560000000     0.228300000000     0.017940000000    -0.0287311  
C79      C      0.497410000000     0.283280000000     0.995240000000    -0.00458832 
C80      C      0.496690000000     0.340430000000     0.964220000000    -0.0940598  
C81      C      0.496500000000     0.210010000000     0.995420000000    -0.0191394  
C82      C      0.526170000000     0.152190000000     0.997880000000    -0.113322   
C83      C      0.475050000000     0.228760000000     0.972690000000    -0.0287282  
C84      C      0.524770000000     0.116020000000     0.997990000000     0.0858755  
C85      C      0.463320000000     0.117500000000     0.994110000000     0.245657   
C86      C      0.475550000000     0.264970000000     0.972560000000    -0.0377497  
C87      C      0.497580000000     0.321790000000     0.995360000000     0.0500546  
C88      C      0.495600000000     0.171520000000     0.995800000000     0.082853   
C89      C      0.525300000000     0.997520000000     0.839900000000    -0.166546   
C90      C      0.494580000000     0.026800000000     0.616550000000     0.0751815  
C91      C      0.492560000000     0.965370000000     0.617160000000     0.0750942  
C92      C      0.494440000000     0.027630000000     0.652750000000    -0.0940696  
C93      C      0.515230000000     0.019270000000     0.728490000000    -0.0376286  
C94      C      0.515450000000     0.019260000000     0.764710000000    -0.0290333  
C95      C      0.493030000000     0.996970000000     0.710100000000    -0.0048827  
C96      C      0.492180000000     0.965270000000     0.653360000000    -0.0940863  
C97      C      0.493340000000     0.997090000000     0.783370000000    -0.0193654  
C98      C      0.463070000000     0.995680000000     0.840880000000    -0.11391    
C99      C      0.470940000000     0.974990000000     0.764990000000    -0.0295283  
C100     C      0.464110000000     0.995530000000     0.877050000000     0.0840537  
C101     C      0.525670000000     0.996950000000     0.876190000000     0.244395   
C102     C      0.470860000000     0.974860000000     0.728760000000    -0.0379223  
C103     C      0.493170000000     0.996630000000     0.671610000000     0.0500263  
C104     C      0.493880000000     0.996810000000     0.821860000000     0.0820784  
C105     C      0.493580000000     0.963300000000     0.339880000000    -0.16655    
C106     C      0.461930000000     0.997750000000     0.116680000000     0.0767941  
C107     C      0.523360000000     0.995790000000     0.117010000000     0.0759987  
C108     C      0.461290000000     0.997780000000     0.152910000000    -0.0931496  
C109     C      0.470110000000     0.018060000000     0.228900000000    -0.0376788  
C110     C      0.470290000000     0.017760000000     0.265150000000    -0.029131   
C111     C      0.492310000000     0.996100000000     0.210100000000    -0.00449693 
C112     C      0.523650000000     0.995580000000     0.153190000000    -0.0938854  
C113     C      0.492490000000     0.995310000000     0.283370000000    -0.0192124  
C114     C      0.491650000000     0.025530000000     0.340920000000    -0.113601   
C115     C      0.514600000000     0.973290000000     0.264550000000    -0.028916   
C116     C      0.492050000000     0.024470000000     0.377100000000     0.0849587  
C117     C      0.493550000000     0.962900000000     0.376170000000     0.245039   
C118     C      0.514570000000     0.973740000000     0.228340000000    -0.0375705  
C119     C      0.492390000000     0.996550000000     0.171610000000     0.0505331  
C120     C      0.492550000000     0.994740000000     0.321870000000     0.0823414  
C121     C      0.030170000000     0.494420000000     0.652410000000    -0.165955   
C122     C      0.996940000000     0.464520000000     0.875240000000     0.0751616  
C123     C      0.995940000000     0.525980000000     0.874970000000     0.0756378  
C124     C      0.996970000000     0.463890000000     0.839040000000    -0.0939711  
C125     C      0.018700000000     0.472330000000     0.763600000000    -0.0375533  
C126     C      0.019270000000     0.472440000000     0.727380000000    -0.0289464  
C127     C      0.996570000000     0.494820000000     0.781840000000    -0.00464487 
C128     C      0.995720000000     0.526280000000     0.838750000000    -0.0936792  
C129     C      0.997590000000     0.494890000000     0.708580000000    -0.019035   
C130     C      0.967980000000     0.496620000000     0.650720000000    -0.113513   
C131     C      0.975260000000     0.517190000000     0.726800000000    -0.0293414  
C132     C      0.969430000000     0.496850000000     0.614560000000     0.0851794  
C133     C      0.030970000000     0.495110000000     0.616130000000     0.245409   
C134     C      0.974840000000     0.517240000000     0.763040000000    -0.0377928  
C135     C      0.996340000000     0.495000000000     0.820340000000     0.0501848  
C136     C      0.998550000000     0.495280000000     0.670090000000     0.0825066  
C137     C      0.030330000000     0.496270000000     0.337630000000    -0.166686   
C138     C      0.996970000000     0.465280000000     0.114990000000     0.0757118  
C139     C      0.996250000000     0.526750000000     0.114890000000     0.0750475  
C140     C      0.997010000000     0.464880000000     0.151200000000    -0.0936875  
C141     C      0.018920000000     0.473730000000     0.226520000000    -0.0376293  
C142     C      0.019500000000     0.474000000000     0.262740000000    -0.0289265  
C143     C      0.996790000000     0.496140000000     0.208190000000    -0.00465669 
C144     C      0.996030000000     0.527270000000     0.151100000000    -0.093979   
C145     C      0.997810000000     0.496520000000     0.281440000000    -0.0192907  
C146     C      0.968120000000     0.498180000000     0.339260000000    -0.113777   
C147     C      0.975470000000     0.518750000000     0.263130000000    -0.0294732  
C148     C      0.969540000000     0.498270000000     0.375430000000     0.0844795  
C149     C      0.031090000000     0.496830000000     0.373910000000     0.244708   
C150     C      0.975070000000     0.518660000000     0.226890000000    -0.0380374  
C151     C      0.996530000000     0.496100000000     0.169700000000     0.050154   
C152     C      0.998730000000     0.497000000000     0.319920000000     0.0822557  
C153     C      0.150630000000     0.995390000000     0.465240000000    -0.16649    
C154     C      0.373970000000     0.025700000000     0.497880000000     0.0749996  
C155     C      0.373780000000     0.964240000000     0.496640000000     0.0746245  
C156     C      0.337770000000     0.026280000000     0.498060000000    -0.0941071  
C157     C      0.262190000000     0.017970000000     0.519150000000    -0.0378239  
C158     C      0.225960000000     0.018240000000     0.519010000000    -0.0293665  
C159     C      0.280620000000     0.995320000000     0.497340000000    -0.00485233 
C160     C      0.337570000000     0.963900000000     0.496600000000    -0.0940475  
C161     C      0.207360000000     0.996010000000     0.496920000000    -0.0192792  
C162     C      0.150050000000     0.998200000000     0.527450000000    -0.113792   
C163     C      0.225800000000     0.973360000000     0.475110000000    -0.02913    
C164     C      0.113880000000     0.998470000000     0.526630000000     0.084638   
C165     C      0.114340000000     0.996080000000     0.465090000000     0.244679   
C166     C      0.262020000000     0.972950000000     0.475390000000    -0.0377049  
C167     C      0.319120000000     0.995150000000     0.497370000000     0.049914   
C168     C      0.168870000000     0.996510000000     0.496550000000     0.082236   
C169     C      0.836910000000     0.996890000000     0.530690000000    -0.166169   
C170     C      0.613640000000     0.025530000000     0.497470000000     0.0755354  
C171     C      0.613740000000     0.964070000000     0.496600000000     0.0759221  
C172     C      0.649840000000     0.026050000000     0.497890000000    -0.0938394  
C173     C      0.725140000000     0.017620000000     0.520040000000    -0.0375595  
C174     C      0.761370000000     0.017670000000     0.520560000000    -0.0288213  
C175     C      0.706960000000     0.994970000000     0.498020000000    -0.00458524 
C176     C      0.649950000000     0.963660000000     0.496790000000    -0.0936239  
C177     C      0.780230000000     0.995230000000     0.498910000000    -0.0191673  
C178     C      0.837630000000     0.994020000000     0.468500000000    -0.113662   
C179     C      0.762050000000     0.972650000000     0.476820000000    -0.0291657  
C180     C      0.873790000000     0.994380000000     0.469360000000     0.0853612  
C181     C      0.873230000000     0.996810000000     0.530890000000     0.245859   
C182     C      0.725820000000     0.972440000000     0.476450000000    -0.0378498  
C183     C      0.668450000000     0.994890000000     0.497540000000     0.0502055  
C184     C      0.818730000000     0.995380000000     0.499370000000     0.082605   
C185     C      0.998400000000     0.839840000000     0.529960000000    -0.166384   
C186     C      0.030440000000     0.616970000000     0.496760000000     0.0743601  
C187     C      0.968990000000     0.616400000000     0.495360000000     0.0745454  
C188     C      0.030550000000     0.653190000000     0.497170000000    -0.0939778  
C189     C      0.975690000000     0.728410000000     0.475510000000    -0.0378813  
C190     C      0.975090000000     0.764630000000     0.475980000000    -0.0289728  
C191     C      0.998710000000     0.709970000000     0.496920000000    -0.00456159 
C192     C      0.968180000000     0.652590000000     0.495610000000    -0.0940635  
C193     C      0.997410000000     0.783240000000     0.497980000000    -0.0190755  
C194     C      0.994200000000     0.840720000000     0.467840000000    -0.113401   
C195     C      0.020440000000     0.764800000000     0.519390000000    -0.0287648  
C196     C      0.993610000000     0.876880000000     0.468850000000     0.0856548  
C197     C      0.997810000000     0.876150000000     0.530290000000     0.245024   
C198     C      0.021140000000     0.728570000000     0.518800000000    -0.0378344  
C199     C      0.999170000000     0.671450000000     0.496550000000     0.0497782  
C200     C      0.996650000000     0.821740000000     0.498600000000     0.0825793  
C201     C      0.030220000000     0.339320000000     0.492000000000    -0.165806   
C202     C      0.993420000000     0.117190000000     0.526740000000     0.0759099  
C203     C      0.993950000000     0.116230000000     0.465280000000     0.0751589  
C204     C      0.993830000000     0.153390000000     0.526660000000    -0.0935969  
C205     C      0.974300000000     0.229260000000     0.517300000000    -0.0377185  
C206     C      0.975240000000     0.265480000000     0.516960000000    -0.0286213  
C207     C      0.995370000000     0.209960000000     0.494660000000    -0.00435561 
C208     C      0.994570000000     0.152430000000     0.464270000000    -0.0939015  
C209     C      0.997420000000     0.283210000000     0.494120000000    -0.0188897  
C210     C      0.968100000000     0.341160000000     0.495780000000    -0.113611   
C211     C      0.018500000000     0.263930000000     0.471490000000    -0.0286761  
C212     C      0.969630000000     0.377300000000     0.495650000000     0.0858796  
C213     C      0.031070000000     0.375620000000     0.491930000000     0.246614   
C214     C      0.017410000000     0.227700000000     0.471690000000    -0.037667   
C215     C      0.994530000000     0.171460000000     0.495190000000     0.0502847  
C216     C      0.998600000000     0.321710000000     0.493950000000     0.0830166  
H1       H      0.603410000000     0.495040000000     0.940070000000     0.0259895  
H2       H      0.890050000000     0.442270000000     0.992600000000     0.0241876  
H3       H      0.714870000000     0.535640000000     0.035440000000     0.0389166  
H4       H      0.778480000000     0.457940000000     0.955040000000     0.0368054  
H5       H      0.827480000000     0.441420000000     0.992770000000     0.058316   
H6       H      0.715190000000     0.457270000000     0.955420000000     0.0390268  
H7       H      0.826300000000     0.552900000000     0.997780000000     0.081995   
H8       H      0.666250000000     0.495180000000     0.939570000000     0.053619   
H9       H      0.666390000000     0.497380000000     0.051380000000     0.0532291  
H10      H      0.778120000000     0.535630000000     0.035720000000     0.0364134  
H11      H      0.603570000000     0.497600000000     0.051050000000     0.0258645  
H12      H      0.895590000000     0.564830000000     0.023880000000     0.151876   
H13      H      0.390330000000     0.494560000000     0.051440000000     0.0261825  
H14      H      0.103490000000     0.549320000000     0.993360000000     0.0243753  
H15      H      0.278950000000     0.456080000000     0.035480000000     0.0395608  
H16      H      0.215180000000     0.534600000000     0.956010000000     0.0363037  
H17      H      0.166040000000     0.550370000000     0.993900000000     0.0585199  
H18      H      0.278460000000     0.535530000000     0.956550000000     0.038929   
H19      H      0.167610000000     0.438830000000     0.996900000000     0.0817825  
H20      H      0.327470000000     0.494450000000     0.051910000000     0.0537735  
H21      H      0.327370000000     0.497760000000     0.940140000000     0.053489   
H22      H      0.215660000000     0.455770000000     0.035560000000     0.0388836  
H23      H      0.390200000000     0.498160000000     0.940490000000     0.0259538  
H24      H      0.098610000000     0.424550000000     0.971870000000     0.152811   
H25      H      0.496140000000     0.603100000000     0.940430000000     0.0259303  
H26      H      0.549100000000     0.890530000000     0.999930000000     0.0238687  
H27      H      0.458120000000     0.714280000000     0.955750000000     0.0389667  
H28      H      0.534910000000     0.778280000000     0.036730000000     0.0368041  
H29      H      0.550950000000     0.827940000000     0.999510000000     0.0580961  
H30      H      0.536050000000     0.714970000000     0.036200000000     0.0390102  
H31      H      0.439540000000     0.825040000000     0.993810000000     0.0822374  
H32      H      0.496490000000     0.665920000000     0.940060000000     0.0532997  
H33      H      0.498260000000     0.665870000000     0.051870000000     0.0536845  
H34      H      0.457680000000     0.777510000000     0.955630000000     0.0364219  
H35      H      0.498270000000     0.603020000000     0.051420000000     0.026029   
H36      H      0.426630000000     0.894180000000     0.967950000000     0.151802   
H37      H      0.495980000000     0.389980000000     0.940050000000     0.0259934  
H38      H      0.549250000000     0.102310000000     0.999590000000     0.0256124  
H39      H      0.458420000000     0.278650000000     0.955000000000     0.0392219  
H40      H      0.535190000000     0.214600000000     0.035950000000     0.0368909  
H41      H      0.551190000000     0.164900000000     0.998960000000     0.0588371  
H42      H      0.536320000000     0.277890000000     0.035470000000     0.039069   
H43      H      0.439800000000     0.167920000000     0.992780000000     0.0824047  
H44      H      0.496480000000     0.327170000000     0.939460000000     0.0534495  
H45      H      0.498630000000     0.326860000000     0.051270000000     0.053719   
H46      H      0.458030000000     0.215430000000     0.954770000000     0.036914   
H47      H      0.498530000000     0.389700000000     0.051030000000     0.0260145  
H48      H      0.426920000000     0.098720000000     0.967060000000     0.152872   
H49      H      0.491880000000     0.940480000000     0.604110000000     0.0263168  
H50      H      0.439430000000     0.994880000000     0.890510000000     0.0239592  
H51      H      0.453230000000     0.957610000000     0.715320000000     0.0388201  
H52      H      0.532780000000     0.036810000000     0.778140000000     0.0386142  
H53      H      0.438160000000     0.995420000000     0.827920000000     0.0581608  
H54      H      0.532820000000     0.036400000000     0.714860000000     0.0393396  
H55      H      0.549710000000     0.997930000000     0.825980000000     0.0816858  
H56      H      0.491600000000     0.940700000000     0.666940000000     0.0535449  
H57      H      0.494870000000     0.052460000000     0.665860000000     0.0535553  
H58      H      0.453810000000     0.957410000000     0.778630000000     0.0359788  
H59      H      0.495430000000     0.051420000000     0.603010000000     0.025937   
H60      H      0.564110000000     0.972800000000     0.894870000000     0.152447   
H61      H      0.548200000000     0.995080000000     0.103870000000     0.0265419  
H62      H      0.491550000000     0.049130000000     0.390570000000     0.0239315  
H63      H      0.531750000000     0.956280000000     0.214600000000     0.039586   
H64      H      0.452750000000     0.034820000000     0.278930000000     0.0365266  
H65      H      0.491190000000     0.050450000000     0.327980000000     0.0584267  
H66      H      0.452880000000     0.035790000000     0.215590000000     0.0397488  
H67      H      0.493850000000     0.938910000000     0.325930000000     0.0818597  
H68      H      0.548300000000     0.995050000000     0.166650000000     0.0538153  
H69      H      0.436530000000     0.998210000000     0.166160000000     0.0548895  
H70      H      0.532220000000     0.955920000000     0.277840000000     0.0386968  
H71      H      0.437250000000     0.998530000000     0.103240000000     0.0296241  
H72      H      0.469790000000     0.924380000000     0.395160000000     0.152706   
H73      H      0.995620000000     0.550800000000     0.888150000000     0.0278019  
H74      H      0.944920000000     0.497680000000     0.600810000000     0.0239488  
H75      H      0.957290000000     0.534660000000     0.776360000000     0.0395456  
H76      H      0.036540000000     0.454730000000     0.714070000000     0.0393888  
H77      H      0.942920000000     0.497000000000     0.663410000000     0.0584199  
H78      H      0.035950000000     0.454950000000     0.777350000000     0.0395236  
H79      H      0.054410000000     0.493820000000     0.666610000000     0.0823438  
H80      H      0.995600000000     0.550920000000     0.825280000000     0.0541251  
H81      H      0.997090000000     0.439120000000     0.825790000000     0.0538188  
H82      H      0.958450000000     0.534990000000     0.713030000000     0.0364271  
H83      H      0.997350000000     0.439810000000     0.888630000000     0.0262131  
H84      H      0.069800000000     0.519040000000     0.598000000000     0.153015   
H85      H      0.996030000000     0.551490000000     0.101550000000     0.0261547  
H86      H      0.945010000000     0.498940000000     0.389150000000     0.0236618  
H87      H      0.957520000000     0.536000000000     0.213490000000     0.03867    
H88      H      0.036770000000     0.456350000000     0.276120000000     0.0388321  
H89      H      0.943080000000     0.498480000000     0.326540000000     0.0580691  
H90      H      0.036170000000     0.456290000000     0.212840000000     0.0400761  
H91      H      0.054580000000     0.495810000000     0.323450000000     0.0820302  
H92      H      0.996020000000     0.551990000000     0.164430000000     0.053574   
H93      H      0.997030000000     0.440190000000     0.164590000000     0.0542155  
H94      H      0.958650000000     0.536580000000     0.276830000000     0.0360294  
H95      H      0.997260000000     0.440490000000     0.101750000000     0.0279951  
H96      H      0.069760000000     0.520890000000     0.392200000000     0.153322   
H97      H      0.387000000000     0.939440000000     0.496160000000     0.0259723  
H98      H      0.100600000000     0.999540000000     0.551380000000     0.0243542  
H99      H      0.275480000000     0.955410000000     0.458070000000     0.039244   
H100     H      0.212500000000     0.036180000000     0.535910000000     0.0364116  
H101     H      0.163150000000     0.998780000000     0.552280000000     0.0584059  
H102     H      0.275780000000     0.035290000000     0.536580000000     0.0390201  
H103     H      0.164410000000     0.994540000000     0.440770000000     0.0817803  
H104     H      0.324130000000     0.939230000000     0.496420000000     0.0534738  
H105     H      0.324510000000     0.051030000000     0.498260000000     0.0535504  
H106     H      0.212200000000     0.955690000000     0.458040000000     0.0386189  
H107     H      0.387320000000     0.050430000000     0.498300000000     0.0259705  
H108     H      0.095450000000     0.019700000000     0.426430000000     0.152706   
H109     H      0.600480000000     0.939280000000     0.496200000000     0.0278883  
H110     H      0.887110000000     0.993500000000     0.444620000000     0.0243019  
H111     H      0.712550000000     0.954910000000     0.458990000000     0.0395241  
H112     H      0.774630000000     0.035580000000     0.537650000000     0.0388423  
H113     H      0.824570000000     0.993200000000     0.443650000000     0.0585266  
H114     H      0.711340000000     0.035070000000     0.537180000000     0.0394688  
H115     H      0.823090000000     0.997570000000     0.555150000000     0.0822856  
H116     H      0.663340000000     0.938980000000     0.496850000000     0.0541884  
H117     H      0.663150000000     0.050780000000     0.498060000000     0.0537165  
H118     H      0.775850000000     0.954840000000     0.460050000000     0.0364979  
H119     H      0.600320000000     0.050280000000     0.497680000000     0.0261576  
H120     H      0.892440000000     0.973630000000     0.569660000000     0.156346   
H121     H      0.944350000000     0.602900000000     0.494750000000     0.0258282  
H122     H      0.991740000000     0.890270000000     0.444200000000     0.0255576  
H123     H      0.038960000000     0.715120000000     0.535830000000     0.0391243  
H124     H      0.956850000000     0.778060000000     0.459390000000     0.0366449  
H125     H      0.993170000000     0.827750000000     0.442950000000     0.0587429  
H126     H      0.958310000000     0.714840000000     0.458110000000     0.0388157  
H127     H      0.999910000000     0.825970000000     0.554340000000     0.0821201  
H128     H      0.943320000000     0.665670000000     0.495540000000     0.0533604  
H129     H      0.055120000000     0.666770000000     0.497520000000     0.053539   
H130     H      0.038190000000     0.778390000000     0.536380000000     0.0368772  
H131     H      0.055320000000     0.603890000000     0.497130000000     0.0263496  
H132     H      0.024750000000     0.895720000000     0.566350000000     0.152938   
H133     H      0.993960000000     0.102560000000     0.440730000000     0.026219   
H134     H      0.945170000000     0.391080000000     0.497130000000     0.0241461  
H135     H      0.034190000000     0.213570000000     0.454160000000     0.0393399  
H136     H      0.958900000000     0.279600000000     0.534910000000     0.0373276  
H137     H      0.943030000000     0.328560000000     0.496910000000     0.0585129  
H138     H      0.956820000000     0.216350000000     0.535080000000     0.0398421  
H139     H      0.054410000000     0.325060000000     0.490880000000     0.0832119  
H140     H      0.994700000000     0.165410000000     0.439370000000     0.0536738  
H141     H      0.994150000000     0.167090000000     0.551170000000     0.0545946  
H142     H      0.035630000000     0.276850000000     0.453370000000     0.037272   
H143     H      0.993090000000     0.104290000000     0.551720000000     0.0283596  
H144     H      0.067480000000     0.394250000000     0.464780000000     0.15593    
N1       N      0.894740000000     0.497790000000     0.995370000000    -0.225729   
N2       N      0.598780000000     0.496340000000     0.995560000000    -0.19886    
N3       N      0.098960000000     0.493720000000     0.994940000000    -0.225492   
N4       N      0.394980000000     0.496370000000     0.995960000000    -0.198705   
N5       N      0.493540000000     0.894330000000     0.996800000000    -0.225619   
N6       N      0.497150000000     0.598350000000     0.995930000000    -0.198765   
N7       N      0.493700000000     0.098580000000     0.996240000000    -0.225337   
N8       N      0.497200000000     0.394550000000     0.995560000000    -0.198851   
N9       N      0.495040000000     0.996230000000     0.894810000000    -0.225819   
N10      N      0.493690000000     0.995910000000     0.598850000000    -0.198821   
N11      N      0.493040000000     0.993520000000     0.394820000000    -0.225658   
N12      N      0.492730000000     0.996750000000     0.098850000000    -0.198082   
N13      N      0.000560000000     0.496070000000     0.597150000000    -0.225204   
N14      N      0.996530000000     0.495330000000     0.893100000000    -0.198453   
N15      N      0.000660000000     0.497510000000     0.392860000000    -0.22571    
N16      N      0.996700000000     0.495990000000     0.096940000000    -0.198417   
N17      N      0.095920000000     0.997320000000     0.495830000000    -0.225664   
N18      N      0.391870000000     0.994920000000     0.497220000000    -0.198907   
N19      N      0.891700000000     0.995810000000     0.500190000000    -0.22542    
N20      N      0.595690000000     0.994770000000     0.496940000000    -0.198291   
N21      N      0.995300000000     0.894700000000     0.499710000000    -0.225396   
N22      N      0.999890000000     0.598680000000     0.495890000000    -0.198907   
N23      N      0.000760000000     0.394650000000     0.493950000000    -0.225079   
N24      N      0.993520000000     0.098710000000     0.496290000000    -0.198313   
Ni1      Ni     0.993130000000     0.996240000000     0.467270000000     1.00569    
Ni2      Ni     0.994510000000     0.997370000000     0.528790000000     1.01027    
Ni3      Ni     0.031300000000     0.496900000000     0.495010000000     1.01554    
Ni4      Ni     0.969750000000     0.496650000000     0.494990000000     1.00053    
Ni5      Ni     0.493740000000     0.963950000000     0.497310000000     1.00766    
Ni6      Ni     0.493790000000     0.025570000000     0.496590000000     1.00279    
Ni7      Ni     0.524510000000     0.996440000000     0.997330000000     1.00548    
Ni8      Ni     0.462960000000     0.996490000000     0.996550000000     1.01131    
Ni9      Ni     0.996200000000     0.464920000000     0.995120000000     1.00653    
Ni10     Ni     0.997460000000     0.526500000000     0.994920000000     1.00671    
Ni11     Ni     0.496970000000     0.496390000000     0.026600000000     1.0034     
Ni12     Ni     0.496820000000     0.496500000000     0.964940000000     1.00405    
O1       O      0.992920000000     0.045950000000     0.468360000000    -0.449564   
O2       O      0.993510000000     0.946640000000     0.470190000000    -0.450091   
O3       O      0.943540000000     0.995940000000     0.470420000000    -0.45212    
O4       O      0.042790000000     0.996520000000     0.468160000000    -0.438437   
O5       O      0.044110000000     0.997840000000     0.525640000000    -0.452452   
O6       O      0.944820000000     0.996850000000     0.527900000000    -0.435884   
O7       O      0.995050000000     0.947700000000     0.527660000000    -0.437881   
O8       O      0.993950000000     0.046950000000     0.525960000000    -0.447913   
O9       O      0.029070000000     0.546590000000     0.495570000000    -0.450424   
O10      O      0.029480000000     0.447230000000     0.494430000000    -0.432623   
O11      O      0.029330000000     0.497380000000     0.445420000000    -0.439441   
O12      O      0.029290000000     0.496340000000     0.544610000000    -0.436739   
O13      O      0.971790000000     0.496390000000     0.544700000000    -0.451192   
O14      O      0.971830000000     0.497010000000     0.445280000000    -0.451764   
O15      O      0.971990000000     0.447020000000     0.494700000000    -0.451973   
O16      O      0.971470000000     0.546260000000     0.495290000000    -0.451279   
O17      O      0.543420000000     0.965930000000     0.497270000000    -0.447158   
O18      O      0.444080000000     0.966000000000     0.497250000000    -0.45035    
O19      O      0.493740000000     0.965390000000     0.447690000000    -0.438905   
O20      O      0.493690000000     0.966540000000     0.546920000000    -0.450523   
O21      O      0.494040000000     0.024160000000     0.546280000000    -0.449772   
O22      O      0.493470000000     0.022890000000     0.446930000000    -0.451737   
O23      O      0.444160000000     0.023620000000     0.496900000000    -0.450557   
O24      O      0.543420000000     0.023550000000     0.496420000000    -0.449817   
O25      O      0.521970000000     0.996440000000     0.046890000000    -0.450451   
O26      O      0.523120000000     0.996450000000     0.947700000000    -0.439262   
O27      O      0.522480000000     0.046150000000     0.997270000000    -0.448911   
O28      O      0.522410000000     0.946730000000     0.997330000000    -0.451858   
O29      O      0.464910000000     0.946900000000     0.996790000000    -0.438837   
O30      O      0.464990000000     0.046060000000     0.996260000000    -0.438525   
O31      O      0.465640000000     0.996190000000     0.946890000000    -0.452547   
O32      O      0.464360000000     0.996790000000     0.046290000000    -0.444385   
O33      O      0.996210000000     0.467060000000     0.044760000000    -0.447723   
O34      O      0.996310000000     0.466740000000     0.945470000000    -0.450498   
O35      O      0.045880000000     0.465920000000     0.995200000000    -0.437956   
O36      O      0.946580000000     0.468020000000     0.995050000000    -0.452279   
O37      O      0.947820000000     0.525510000000     0.995150000000    -0.438149   
O38      O      0.047070000000     0.523420000000     0.994730000000    -0.452157   
O39      O      0.997190000000     0.524340000000     0.945260000000    -0.44783    
O40      O      0.997530000000     0.524660000000     0.044600000000    -0.449726   
O41      O      0.497120000000     0.446740000000     0.024490000000    -0.44996    
O42      O      0.496910000000     0.546050000000     0.024680000000    -0.449969   
O43      O      0.447300000000     0.496250000000     0.024690000000    -0.449772   
O44      O      0.546600000000     0.496510000000     0.024480000000    -0.4503     
O45      O      0.546470000000     0.496350000000     0.966850000000    -0.450289   
O46      O      0.447180000000     0.496640000000     0.967060000000    -0.450176   
O47      O      0.496930000000     0.546140000000     0.967050000000    -0.450342   
O48      O      0.496710000000     0.446860000000     0.966860000000    -0.450333   
O49      O      0.892730000000     0.560080000000     0.998760000000    -0.293424   
O50      O      0.101170000000     0.431380000000     0.996530000000    -0.293862   
O51      O      0.431300000000     0.891310000000     0.993080000000    -0.292761   
O52      O      0.431490000000     0.101670000000     0.992200000000    -0.293095   
O53      O      0.557400000000     0.997500000000     0.892350000000    -0.293832   
O54      O      0.494430000000     0.931170000000     0.392290000000    -0.293984   
O55      O      0.062880000000     0.494380000000     0.600340000000    -0.29048    
O56      O      0.062980000000     0.496200000000     0.389720000000    -0.293691   
O57      O      0.097960000000     0.995090000000     0.433490000000    -0.2939     
O58      O      0.889550000000     0.998160000000     0.562510000000    -0.293504   
O59      O      0.999630000000     0.892390000000     0.561920000000    -0.293674   
O60      O      0.062930000000     0.391390000000     0.489940000000    -0.289931   


