data_structure

_audit_creation_method RASPA-1.0
_audit_creation_date 2023-5-19
_audit_author_name 'Poobodin Mano'

_cell_length_a    38.5809
_cell_length_b    38.5842
_cell_length_c    38.5758
_cell_angle_alpha 90
_cell_angle_beta  90
_cell_angle_gamma 90
_cell_volume      57424.4

_symmetry_cell_setting          triclinic
_symmetry_space_group_name_Hall 'P 1'
_symmetry_space_group_name_H-M  'P 1'
_symmetry_Int_Tables_number     1

_symmetry_equiv_pos_as_xyz 'x,y,z'

loop_
_atom_site_label
_atom_site_type_symbol
_atom_site_fract_x
_atom_site_fract_y
_atom_site_fract_z
_atom_site_charge
Br1      Br     0.899060000000     0.582870000000     0.002740000000    -0.218808   
Br2      Br     0.106120000000     0.582620000000     0.006080000000    -0.220509   
Br3      Br     0.414290000000     0.892930000000     0.983990000000    -0.228494   
Br4      Br     0.414030000000     0.100400000000     0.984390000000    -0.23068    
Br5      Br     0.504050000000     0.912520000000     0.595520000000    -0.229422   
Br6      Br     0.483390000000     0.912360000000     0.388870000000    -0.23045    
Br7      Br     0.995890000000     0.584760000000     0.895350000000    -0.212142   
Br8      Br     0.916530000000     0.483870000000     0.395630000000    -0.234168   
Br9      Br     0.095590000000     0.982180000000     0.578120000000    -0.217509   
Br10     Br     0.888990000000     0.005480000000     0.576960000000    -0.219504   
Br11     Br     0.983530000000     0.892410000000     0.581200000000    -0.210304   
Br12     Br     0.002910000000     0.094150000000     0.421200000000    -0.233121   
C1       C      0.994670000000     0.059910000000     0.498690000000     0.445977   
C2       C      0.991070000000     0.927190000000     0.503890000000     0.445973   
C3       C      0.926360000000     0.995240000000     0.501170000000     0.446011   
C4       C      0.059200000000     0.991480000000     0.501820000000     0.445711   
C5       C      0.996590000000     0.494310000000     0.564130000000     0.435385   
C6       C      0.993160000000     0.493250000000     0.431390000000     0.444243   
C7       C      0.994250000000     0.559940000000     0.497590000000     0.436394   
C8       C      0.995500000000     0.427370000000     0.498280000000     0.436363   
C9       C      0.559040000000     0.989760000000     0.491080000000     0.436593   
C10      C      0.426460000000     0.987930000000     0.493310000000     0.436836   
C11      C      0.491300000000     0.988630000000     0.425800000000     0.444596   
C12      C      0.494080000000     0.988560000000     0.558650000000     0.444769   
C13      C      0.489510000000     0.996780000000     0.058590000000     0.436944   
C14      C      0.491330000000     0.996850000000     0.926000000000     0.437296   
C15      C      0.490170000000     0.063190000000     0.992280000000     0.44444    
C16      C      0.490330000000     0.930290000000     0.992170000000     0.444302   
C17      C      0.002090000000     0.504470000000     0.064040000000     0.43665    
C18      C      0.002830000000     0.507930000000     0.931300000000     0.445523   
C19      C      0.069060000000     0.506400000000     0.998190000000     0.445102   
C20      C      0.936170000000     0.506420000000     0.997320000000     0.445276   
C21      C      0.502550000000     0.430370000000     0.995290000000     0.435211   
C22      C      0.502660000000     0.562980000000     0.995070000000     0.435453   
C23      C      0.436360000000     0.496690000000     0.995510000000     0.435404   
C24      C      0.568950000000     0.496580000000     0.995120000000     0.43532    
C25      C      0.844430000000     0.534720000000     0.998550000000    -0.129787   
C26      C      0.622420000000     0.497160000000     0.025950000000     0.0765726  
C27      C      0.622630000000     0.496220000000     0.964500000000     0.0763507  
C28      C      0.658580000000     0.497620000000     0.026550000000    -0.0935865  
C29      C      0.733390000000     0.520550000000     0.018750000000    -0.0342633  
C30      C      0.769560000000     0.521850000000     0.018940000000    -0.0300495  
C31      C      0.715750000000     0.498550000000     0.995680000000    -0.00471323 
C32      C      0.658850000000     0.496550000000     0.964170000000    -0.0933757  
C33      C      0.788960000000     0.501120000000     0.996120000000    -0.0116498  
C34      C      0.847420000000     0.472810000000     0.994060000000    -0.103633   
C35      C      0.771370000000     0.478960000000     0.973160000000    -0.0303575  
C36      C      0.883500000000     0.475000000000     0.994580000000     0.0829565  
C37      C      0.880700000000     0.536400000000     0.998920000000     0.192676   
C38      C      0.735140000000     0.477760000000     0.972880000000    -0.0350971  
C39      C      0.677270000000     0.497430000000     0.995440000000     0.0517415  
C40      C      0.827430000000     0.502860000000     0.996170000000     0.0717224  
C41      C      0.160790000000     0.534650000000     0.000550000000    -0.129726   
C42      C      0.382520000000     0.496510000000     0.965170000000     0.0764657  
C43      C      0.383040000000     0.497160000000     0.026620000000     0.0767185  
C44      C      0.346300000000     0.496850000000     0.965020000000    -0.0931986  
C45      C      0.270080000000     0.478060000000     0.973820000000    -0.0349855  
C46      C      0.233860000000     0.479230000000     0.974210000000    -0.0302052  
C47      C      0.289530000000     0.498600000000     0.996800000000    -0.00453043 
C48      C      0.346870000000     0.497600000000     0.027400000000    -0.0933707  
C49      C      0.216290000000     0.501110000000     0.997470000000    -0.0116214  
C50      C      0.157830000000     0.472830000000     0.994950000000    -0.103639   
C51      C      0.235760000000     0.521580000000     0.020490000000    -0.0299287  
C52      C      0.121740000000     0.475010000000     0.995410000000     0.082882   
C53      C      0.124520000000     0.536310000000     0.000890000000     0.192697   
C54      C      0.271930000000     0.520320000000     0.020180000000    -0.0342189  
C55      C      0.328020000000     0.497550000000     0.996380000000     0.0518455  
C56      C      0.177820000000     0.502840000000     0.997600000000     0.0715906  
C57      C      0.462420000000     0.838420000000     0.990050000000    -0.13014    
C58      C      0.501790000000     0.616350000000     0.964040000000     0.0767766  
C59      C      0.502530000000     0.616780000000     0.025480000000     0.0766906  
C60      C      0.500980000000     0.652520000000     0.963320000000    -0.0931813  
C61      C      0.519750000000     0.729450000000     0.017010000000    -0.0347582  
C62      C      0.518240000000     0.765660000000     0.016640000000    -0.0300281  
C63      C      0.499400000000     0.709820000000     0.994010000000    -0.0043183  
C64      C      0.501830000000     0.652990000000     0.025690000000    -0.0929661  
C65      C      0.496230000000     0.783050000000     0.993370000000    -0.0115673  
C66      C      0.524220000000     0.841650000000     0.995800000000    -0.103473   
C67      C      0.475920000000     0.763400000000     0.970360000000    -0.0298285  
C68      C      0.521900000000     0.877730000000     0.995210000000     0.082624   
C69      C      0.460620000000     0.874690000000     0.989580000000     0.192183   
C70      C      0.477510000000     0.727230000000     0.970650000000    -0.0342528  
C71      C      0.500870000000     0.671320000000     0.994360000000     0.0519337  
C72      C      0.494290000000     0.821530000000     0.993150000000     0.0716254  
C73      C      0.462070000000     0.154980000000     0.990530000000    -0.130571   
C74      C      0.501590000000     0.376950000000     0.964400000000     0.0762306  
C75      C      0.502310000000     0.376660000000     0.025850000000     0.0761669  
C76      C      0.500700000000     0.340790000000     0.963760000000    -0.0937313  
C77      C      0.519340000000     0.263960000000     0.017550000000    -0.0353252  
C78      C      0.517820000000     0.227760000000     0.017170000000    -0.0305539  
C79      C      0.498970000000     0.283590000000     0.994570000000    -0.00488597 
C80      C      0.501520000000     0.340460000000     0.026140000000    -0.0933177  
C81      C      0.495790000000     0.210390000000     0.993910000000    -0.0121108  
C82      C      0.523890000000     0.151860000000     0.996100000000    -0.103978   
C83      C      0.475430000000     0.230030000000     0.970950000000    -0.0304162  
C84      C      0.521640000000     0.115790000000     0.995400000000     0.0822535  
C85      C      0.460340000000     0.118720000000     0.989940000000     0.191854   
C86      C      0.477030000000     0.266190000000     0.971250000000    -0.0348111  
C87      C      0.500530000000     0.322070000000     0.994850000000     0.0513937  
C88      C      0.493920000000     0.171920000000     0.993610000000     0.07117    
C89      C      0.497820000000     0.960280000000     0.650330000000    -0.130308   
C90      C      0.522880000000     0.996740000000     0.872930000000     0.0781406  
C91      C      0.461440000000     0.997130000000     0.871940000000     0.0797791  
C92      C      0.523930000000     0.996540000000     0.836750000000    -0.0929054  
C93      C      0.470600000000     0.016320000000     0.759760000000    -0.0345552  
C94      C      0.471030000000     0.015300000000     0.723540000000    -0.029666   
C95      C      0.493700000000     0.995870000000     0.779160000000    -0.00383391 
C96      C      0.461560000000     0.997010000000     0.835730000000    -0.0914635  
C97      C      0.494490000000     0.993700000000     0.705910000000    -0.0116059  
C98      C      0.491410000000     0.022030000000     0.647490000000    -0.10356    
C99      C      0.517700000000     0.973390000000     0.725310000000    -0.0296751  
C100     C      0.491600000000     0.019900000000     0.611390000000     0.0827331  
C101     C      0.497910000000     0.958670000000     0.614060000000     0.19239    
C102     C      0.517330000000     0.974480000000     0.761500000000    -0.0341199  
C103     C      0.493050000000     0.996610000000     0.817670000000     0.0527903  
C104     C      0.494540000000     0.992020000000     0.667420000000     0.0717332  
C105     C      0.486970000000     0.960450000000     0.334120000000    -0.130589   
C106     C      0.458160000000     0.996440000000     0.111820000000     0.0788478  
C107     C      0.519600000000     0.997420000000     0.112500000000     0.0775509  
C108     C      0.457310000000     0.996340000000     0.148020000000    -0.0920373  
C109     C      0.464980000000     0.974490000000     0.223380000000    -0.0343306  
C110     C      0.465180000000     0.973370000000     0.259570000000    -0.0297823  
C111     C      0.487970000000     0.996290000000     0.205400000000    -0.00422648 
C112     C      0.519680000000     0.997450000000     0.148680000000    -0.0932388  
C113     C      0.488300000000     0.994110000000     0.278630000000    -0.0119359  
C114     C      0.491690000000     0.022360000000     0.337040000000    -0.103808   
C115     C      0.511030000000     0.016210000000     0.260680000000    -0.0302344  
C116     C      0.492240000000     0.020120000000     0.373120000000     0.0825153  
C117     C      0.487630000000     0.958740000000     0.370380000000     0.192159   
C118     C      0.510910000000     0.017230000000     0.224460000000    -0.0349707  
C119     C      0.488300000000     0.996830000000     0.166910000000     0.0524346  
C120     C      0.488990000000     0.992330000000     0.317080000000     0.0714242  
C121     C      0.000150000000     0.537430000000     0.839880000000    -0.129012   
C122     C      0.967250000000     0.496250000000     0.618450000000     0.0768162  
C123     C      0.028670000000     0.495640000000     0.616900000000     0.0767574  
C124     C      0.967710000000     0.497940000000     0.654610000000    -0.0931447  
C125     C      0.023870000000     0.480220000000     0.729860000000    -0.0349392  
C126     C      0.024640000000     0.481980000000     0.766040000000    -0.0302402  
C127     C      0.000340000000     0.500510000000     0.710820000000    -0.00423704 
C128     C      0.030070000000     0.497170000000     0.653050000000    -0.0931348  
C129     C      0.002010000000     0.504180000000     0.784000000000    -0.0112428  
C130     C      0.005140000000     0.475520000000     0.842120000000    -0.103639   
C131     C      0.978610000000     0.524610000000     0.764950000000    -0.0298585  
C132     C      0.005130000000     0.477300000000     0.878200000000     0.0833758  
C133     C      0.000300000000     0.538680000000     0.876210000000     0.192805   
C134     C      0.977740000000     0.522740000000     0.728780000000    -0.0341267  
C135     C      0.999370000000     0.498490000000     0.672370000000     0.0519494  
C136     C      0.002550000000     0.505750000000     0.822480000000     0.0717839  
C137     C      0.963240000000     0.492130000000     0.340100000000    -0.130285   
C138     C      0.000800000000     0.472220000000     0.116680000000     0.0777901  
C139     C      0.001420000000     0.533630000000     0.118530000000     0.0793117  
C140     C      0.999770000000     0.470670000000     0.152830000000    -0.0928569  
C141     C      0.976630000000     0.476160000000     0.227890000000    -0.0344404  
C142     C      0.975420000000     0.474920000000     0.264070000000    -0.0299741  
C143     C      0.998240000000     0.500050000000     0.210850000000    -0.00381274 
C144     C      0.000500000000     0.533010000000     0.154730000000    -0.0912312  
C145     C      0.995880000000     0.497480000000     0.284080000000    -0.0117362  
C146     C      0.025040000000     0.498450000000     0.342110000000    -0.103775   
C147     C      0.017500000000     0.521360000000     0.267050000000    -0.0298347  
C148     C      0.023520000000     0.497070000000     0.378200000000     0.0825694  
C149     C      0.962260000000     0.490840000000     0.376410000000     0.192151   
C150     C      0.018630000000     0.522670000000     0.230850000000    -0.0349099  
C151     C      0.999550000000     0.501270000000     0.172350000000     0.0523079  
C152     C      0.994700000000     0.496060000000     0.322580000000     0.0713325  
C153     C      0.150700000000     0.986270000000     0.530420000000    -0.129398   
C154     C      0.373140000000     0.956720000000     0.494330000000     0.0793201  
C155     C      0.372640000000     0.018150000000     0.493370000000     0.078042   
C156     C      0.336930000000     0.955990000000     0.494710000000    -0.0915474  
C157     C      0.261510000000     0.963940000000     0.516630000000    -0.0338197  
C158     C      0.225310000000     0.964310000000     0.517720000000    -0.0295357  
C159     C      0.279620000000     0.986870000000     0.494870000000    -0.00391949 
C160     C      0.336460000000     0.018350000000     0.493610000000    -0.09288    
C161     C      0.206380000000     0.987550000000     0.496990000000    -0.0110961  
C162     C      0.148100000000     0.991290000000     0.468510000000    -0.102519   
C163     C      0.224470000000     0.010240000000     0.474960000000    -0.0299161  
C164     C      0.112020000000     0.992040000000     0.470570000000     0.0843329  
C165     C      0.114420000000     0.987130000000     0.531950000000     0.192794   
C166     C      0.260680000000     0.009950000000     0.473970000000    -0.0343702  
C167     C      0.318130000000     0.987050000000     0.494310000000     0.0526851  
C168     C      0.167900000000     0.988380000000     0.498630000000     0.0720568  
C169     C      0.834490000000     0.998520000000     0.528930000000    -0.129584   
C170     C      0.612000000000     0.021480000000     0.490940000000     0.0778422  
C171     C      0.613230000000     0.960060000000     0.490580000000     0.0791923  
C172     C      0.648150000000     0.022690000000     0.491260000000    -0.0929708  
C173     C      0.725650000000     0.969770000000     0.472300000000    -0.0345418  
C174     C      0.761870000000     0.970560000000     0.473600000000    -0.0295398  
C175     C      0.705880000000     0.992790000000     0.492490000000    -0.00384393 
C176     C      0.649460000000     0.960340000000     0.490840000000    -0.0914613  
C177     C      0.779120000000     0.994290000000     0.495220000000    -0.0111455  
C178     C      0.837730000000     0.991670000000     0.467230000000    -0.102707   
C179     C      0.759340000000     0.017370000000     0.515320000000    -0.0295802  
C180     C      0.873810000000     0.992240000000     0.469560000000     0.0843841  
C181     C      0.870760000000     0.999000000000     0.530730000000     0.193451   
C182     C      0.723170000000     0.016640000000     0.513960000000    -0.0338963  
C183     C      0.667380000000     0.991910000000     0.491370000000     0.0525073  
C184     C      0.817600000000     0.994800000000     0.497110000000     0.0722883  
C185     C      0.988640000000     0.836270000000     0.534760000000    -0.128997   
C186     C      0.962980000000     0.613150000000     0.499120000000     0.0780819  
C187     C      0.024400000000     0.613830000000     0.497240000000     0.0773802  
C188     C      0.962130000000     0.649320000000     0.499960000000    -0.0926998  
C189     C      0.969710000000     0.724370000000     0.522590000000    -0.0337635  
C190     C      0.969310000000     0.760570000000     0.523590000000    -0.0294477  
C191     C      0.992680000000     0.706700000000     0.500500000000    -0.00402778 
C192     C      0.024480000000     0.650020000000     0.497950000000    -0.0929825  
C193     C      0.991810000000     0.779930000000     0.502470000000    -0.0109907  
C194     C      0.993280000000     0.837590000000     0.472780000000    -0.103293   
C195     C      0.014780000000     0.762260000000     0.480370000000    -0.029769   
C196     C      0.992840000000     0.873680000000     0.473990000000     0.0842836  
C197     C      0.988290000000     0.872600000000     0.535430000000     0.193523   
C198     C      0.015250000000     0.726070000000     0.479440000000    -0.0343603  
C199     C      0.993110000000     0.668220000000     0.499430000000     0.0525986  
C200     C      0.991260000000     0.818420000000     0.503350000000     0.0724494  
C201     C      0.998660000000     0.150580000000     0.467290000000    -0.130072   
C202     C      0.026640000000     0.374030000000     0.497710000000     0.0771598  
C203     C      0.965230000000     0.373570000000     0.499780000000     0.0781569  
C204     C      0.027380000000     0.337840000000     0.497960000000    -0.0931553  
C205     C      0.019470000000     0.262080000000     0.477770000000    -0.0341788  
C206     C      0.019440000000     0.225860000000     0.477590000000    -0.029944   
C207     C      0.996610000000     0.280520000000     0.499340000000    -0.00427052 
C208     C      0.965040000000     0.337380000000     0.500150000000    -0.0925698  
C209     C      0.996620000000     0.207230000000     0.499040000000    -0.0111364  
C210     C      0.993740000000     0.149790000000     0.529250000000    -0.102019   
C211     C      0.973910000000     0.225660000000     0.520770000000    -0.0301116  
C212     C      0.993480000000     0.113660000000     0.528280000000     0.085115   
C213     C      0.998310000000     0.114260000000     0.466860000000     0.193196   
C214     C      0.973870000000     0.261890000000     0.520880000000    -0.0345276  
C215     C      0.996350000000     0.319040000000     0.499200000000     0.0522589  
C216     C      0.996330000000     0.168720000000     0.498550000000     0.071979   
H1       H      0.609410000000     0.495790000000     0.939700000000     0.027596   
H2       H      0.897580000000     0.450730000000     0.992990000000     0.027417   
H3       H      0.722320000000     0.460310000000     0.955020000000     0.0403583  
H4       H      0.782350000000     0.538930000000     0.037190000000     0.0432231  
H5       H      0.835280000000     0.447540000000     0.992520000000     0.0581863  
H6       H      0.719210000000     0.537150000000     0.036410000000     0.0416796  
H7       H      0.829490000000     0.558480000000     0.999770000000     0.0844397  
H8       H      0.672280000000     0.496740000000     0.939520000000     0.0559259  
H9       H      0.671800000000     0.497820000000     0.051330000000     0.055565   
H10      H      0.785590000000     0.462870000000     0.955080000000     0.0398466  
H11      H      0.609060000000     0.497320000000     0.050680000000     0.027587   
H12      H      0.396520000000     0.497210000000     0.051280000000     0.0277187  
H13      H      0.107670000000     0.450770000000     0.993300000000     0.0273986  
H14      H      0.286140000000     0.536720000000     0.037990000000     0.0418666  
H15      H      0.219610000000     0.463360000000     0.955960000000     0.0399156  
H16      H      0.169970000000     0.447590000000     0.993010000000     0.0583424  
H17      H      0.282850000000     0.460820000000     0.955720000000     0.0405629  
H18      H      0.175710000000     0.558390000000     0.002290000000     0.0845783  
H19      H      0.333780000000     0.497660000000     0.052240000000     0.0556521  
H20      H      0.332760000000     0.497160000000     0.940430000000     0.0560157  
H21      H      0.223010000000     0.538420000000     0.038980000000     0.0432056  
H22      H      0.395610000000     0.496200000000     0.940300000000     0.0276584  
H23      H      0.503000000000     0.603660000000     0.050330000000     0.0277449  
H24      H      0.546070000000     0.891900000000     0.997350000000     0.0277642  
H25      H      0.461250000000     0.712890000000     0.952830000000     0.0422527  
H26      H      0.534000000000     0.780040000000     0.034890000000     0.0401166  
H27      H      0.549510000000     0.829630000000     0.997850000000     0.058829   
H28      H      0.537120000000     0.716830000000     0.035100000000     0.0409835  
H29      H      0.438750000000     0.823400000000     0.988260000000     0.0841391  
H30      H      0.501420000000     0.666490000000     0.050310000000     0.0560687  
H31      H      0.500750000000     0.665640000000     0.938490000000     0.0562375  
H32      H      0.458970000000     0.776010000000     0.951870000000     0.0436781  
H33      H      0.501830000000     0.602910000000     0.939360000000     0.0280998  
H34      H      0.502800000000     0.389850000000     0.050660000000     0.027321   
H35      H      0.545860000000     0.101670000000     0.997420000000     0.0271938  
H36      H      0.460750000000     0.280550000000     0.953450000000     0.041064   
H37      H      0.533620000000     0.213370000000     0.035380000000     0.0391443  
H38      H      0.549160000000     0.163930000000     0.998110000000     0.0579249  
H39      H      0.536740000000     0.276580000000     0.035610000000     0.0400395  
H40      H      0.438360000000     0.169960000000     0.988860000000     0.0832451  
H41      H      0.501070000000     0.327010000000     0.050790000000     0.0552785  
H42      H      0.500450000000     0.327610000000     0.938970000000     0.0551967  
H43      H      0.458460000000     0.217440000000     0.952460000000     0.0425164  
H44      H      0.501670000000     0.390320000000     0.939680000000     0.0273826  
H45      H      0.436470000000     0.997240000000     0.884840000000     0.0358458  
H46      H      0.489030000000     0.044110000000     0.597360000000     0.0272968  
H47      H      0.535250000000     0.958160000000     0.775660000000     0.0424878  
H48      H      0.452640000000     0.031050000000     0.709340000000     0.0404529  
H49      H      0.489220000000     0.047230000000     0.659670000000     0.0584487  
H50      H      0.452310000000     0.033340000000     0.772580000000     0.0422625  
H51      H      0.500020000000     0.936550000000     0.665200000000     0.0842086  
H52      H      0.437070000000     0.996660000000     0.822010000000     0.0592083  
H53      H      0.548860000000     0.996690000000     0.823840000000     0.0563218  
H54      H      0.536360000000     0.956760000000     0.712510000000     0.0434557  
H55      H      0.547430000000     0.996720000000     0.886610000000     0.0283647  
H56      H      0.544510000000     0.997730000000     0.099490000000     0.0277973  
H57      H      0.494370000000     0.044360000000     0.387180000000     0.0270962  
H58      H      0.528700000000     0.034570000000     0.211380000000     0.040587   
H59      H      0.447080000000     0.956350000000     0.272660000000     0.0433833  
H60      H      0.492950000000     0.047640000000     0.324890000000     0.0581914  
H61      H      0.447190000000     0.957810000000     0.209460000000     0.0429571  
H62      H      0.485180000000     0.936720000000     0.319200000000     0.0837411  
H63      H      0.544250000000     0.997400000000     0.162260000000     0.0558914  
H64      H      0.432460000000     0.996250000000     0.161090000000     0.0581828  
H65      H      0.529320000000     0.032310000000     0.274610000000     0.0394715  
H66      H      0.433550000000     0.996120000000     0.098250000000     0.0342886  
H67      H      0.053090000000     0.494910000000     0.603000000000     0.027865   
H68      H      0.007140000000     0.452860000000     0.891930000000     0.0275131  
H69      H      0.959550000000     0.538970000000     0.714850000000     0.0424908  
H70      H      0.043170000000     0.466130000000     0.779950000000     0.0399429  
H71      H      0.006640000000     0.450380000000     0.829710000000     0.0583915  
H72      H      0.041420000000     0.462610000000     0.716820000000     0.0406206  
H73      H      0.998420000000     0.561320000000     0.825210000000     0.0850447  
H74      H      0.055110000000     0.497890000000     0.665720000000     0.0561779  
H75      H      0.943350000000     0.498440000000     0.668560000000     0.0561913  
H76      H      0.960610000000     0.541730000000     0.778040000000     0.0441922  
H77      H      0.942150000000     0.495880000000     0.605810000000     0.0287911  
H78      H      0.001920000000     0.558770000000     0.105980000000     0.0362079  
H79      H      0.047990000000     0.499180000000     0.391850000000     0.0272926  
H80      H      0.035800000000     0.541160000000     0.218540000000     0.0421992  
H81      H      0.958750000000     0.455990000000     0.276380000000     0.0427875  
H82      H      0.050050000000     0.501010000000     0.329610000000     0.0583565  
H83      H      0.960330000000     0.458600000000     0.213250000000     0.0418103  
H84      H      0.939270000000     0.490360000000     0.325560000000     0.0834096  
H85      H      0.999980000000     0.557300000000     0.168780000000     0.0588456  
H86      H      0.999550000000     0.445560000000     0.165390000000     0.0558754  
H87      H      0.033340000000     0.539320000000     0.281720000000     0.0401191  
H88      H      0.000970000000     0.447860000000     0.102670000000     0.0281252  
H89      H      0.385710000000     0.043020000000     0.492950000000     0.027918   
H90      H      0.098090000000     0.994410000000     0.446270000000     0.0319893  
H91      H      0.273850000000     0.027690000000     0.456650000000     0.0414325  
H92      H      0.212120000000     0.946240000000     0.534690000000     0.0446061  
H93      H      0.160370000000     0.992590000000     0.443280000000     0.0603171  
H94      H      0.275340000000     0.946050000000     0.533270000000     0.0435142  
H95      H      0.165480000000     0.984220000000     0.554220000000     0.0846434  
H96      H      0.322970000000     0.042970000000     0.493760000000     0.0561803  
H97      H      0.323770000000     0.931190000000     0.494890000000     0.0587338  
H98      H      0.210650000000     0.028630000000     0.458870000000     0.0410734  
H99      H      0.386630000000     0.932080000000     0.494530000000     0.0349675  
H100     H      0.600430000000     0.935040000000     0.490450000000     0.0349399  
H101     H      0.887990000000     0.989650000000     0.445430000000     0.0307898  
H102     H      0.708720000000     0.034490000000     0.530110000000     0.0420933  
H103     H      0.776350000000     0.952240000000     0.458020000000     0.0410366  
H104     H      0.825720000000     0.989180000000     0.441970000000     0.059858   
H105     H      0.713140000000     0.951320000000     0.455250000000     0.0421975  
H106     H      0.819480000000     0.000730000000     0.552570000000     0.0848178  
H107     H      0.663280000000     0.935910000000     0.491270000000     0.0588162  
H108     H      0.660940000000     0.047680000000     0.491150000000     0.0558495  
H109     H      0.771820000000     0.036210000000     0.531960000000     0.0433912  
H110     H      0.598230000000     0.045980000000     0.490910000000     0.0278523  
H111     H      0.049290000000     0.600820000000     0.496300000000     0.0279916  
H112     H      0.994560000000     0.887040000000     0.449320000000     0.0291137  
H113     H      0.033030000000     0.713240000000     0.461900000000     0.0413153  
H114     H      0.951070000000     0.773410000000     0.540650000000     0.0444609  
H115     H      0.994820000000     0.824810000000     0.447820000000     0.0594952  
H116     H      0.952240000000     0.710210000000     0.539390000000     0.0427961  
H117     H      0.987230000000     0.821990000000     0.558900000000     0.0854203  
H118     H      0.049050000000     0.663610000000     0.497880000000     0.0565211  
H119     H      0.937280000000     0.662360000000     0.500620000000     0.0574477  
H120     H      0.032670000000     0.776420000000     0.464010000000     0.0408077  
H121     H      0.938370000000     0.599600000000     0.499540000000     0.0310546  
H122     H      0.940370000000     0.386660000000     0.500410000000     0.031555   
H123     H      0.991380000000     0.100470000000     0.553010000000     0.0353317  
H124     H      0.956190000000     0.275310000000     0.538070000000     0.04127    
H125     H      0.037520000000     0.212440000000     0.460810000000     0.0429901  
H126     H      0.992320000000     0.162790000000     0.554100000000     0.0612424  
H127     H      0.037090000000     0.275640000000     0.460630000000     0.0417177  
H128     H      0.000410000000     0.164650000000     0.443040000000     0.0835914  
H129     H      0.940430000000     0.323890000000     0.500670000000     0.0573162  
H130     H      0.052190000000     0.324710000000     0.497620000000     0.0557437  
H131     H      0.955810000000     0.212090000000     0.537380000000     0.0413607  
H132     H      0.051280000000     0.387510000000     0.496850000000     0.0277306  
N1       N      0.900410000000     0.506370000000     0.996980000000    -0.210069   
N2       N      0.604530000000     0.496620000000     0.995160000000    -0.19857    
N3       N      0.104820000000     0.506330000000     0.998230000000    -0.210267   
N4       N      0.400780000000     0.496760000000     0.995740000000    -0.198496   
N5       N      0.490510000000     0.894520000000     0.992260000000    -0.210373   
N6       N      0.502390000000     0.598560000000     0.994890000000    -0.198432   
N7       N      0.490280000000     0.098950000000     0.992470000000    -0.210644   
N8       N      0.502210000000     0.394800000000     0.995210000000    -0.19862    
N9       N      0.494610000000     0.988620000000     0.594410000000    -0.210654   
N10      N      0.491870000000     0.996920000000     0.890430000000    -0.197304   
N11      N      0.490380000000     0.988730000000     0.390050000000    -0.210769   
N12      N      0.489080000000     0.996880000000     0.094170000000    -0.197617   
N13      N      0.002770000000     0.508450000000     0.895530000000    -0.209683   
N14      N      0.997500000000     0.495290000000     0.599690000000    -0.198343   
N15      N      0.992540000000     0.493580000000     0.395620000000    -0.210629   
N16      N      0.001500000000     0.503460000000     0.099610000000    -0.197069   
N17      N      0.094930000000     0.990200000000     0.501880000000    -0.209579   
N18      N      0.390880000000     0.987580000000     0.493700000000    -0.197386   
N19      N      0.890600000000     0.995630000000     0.500910000000    -0.209546   
N20      N      0.594620000000     0.990400000000     0.490790000000    -0.197337   
N21      N      0.990620000000     0.891450000000     0.504890000000    -0.209551   
N22      N      0.993880000000     0.595510000000     0.497900000000    -0.198098   
N23      N      0.995540000000     0.095650000000     0.497510000000    -0.209584   
N24      N      0.995790000000     0.391790000000     0.498580000000    -0.197872   
Ni1      Ni     0.992920000000     0.992380000000     0.470670000000     1.01009    
Ni2      Ni     0.992670000000     0.994710000000     0.531990000000     1.03989    
Ni3      Ni     0.025680000000     0.493950000000     0.497050000000     1.00282    
Ni4      Ni     0.964130000000     0.493380000000     0.498630000000     1.01849    
Ni5      Ni     0.493170000000     0.958030000000     0.492200000000     1.03162    
Ni6      Ni     0.492320000000     0.019520000000     0.492240000000     0.999802   
Ni7      Ni     0.521140000000     0.996790000000     0.992740000000     0.999618   
Ni8      Ni     0.459640000000     0.996710000000     0.991870000000     1.03217    
Ni9      Ni     0.002620000000     0.475520000000     0.996940000000     0.996552   
Ni10     Ni     0.002610000000     0.536920000000     0.998530000000     1.04363    
Ni11     Ni     0.502750000000     0.496720000000     0.026070000000     1.00578    
Ni12     Ni     0.502560000000     0.496610000000     0.964420000000     1.00548    
O1       O      0.994170000000     0.042000000000     0.470780000000    -0.426824   
O2       O      0.991710000000     0.942930000000     0.474550000000    -0.449956   
O3       O      0.943220000000     0.993640000000     0.472480000000    -0.445516   
O4       O      0.042570000000     0.991210000000     0.472950000000    -0.444908   
O5       O      0.042230000000     0.993200000000     0.530270000000    -0.425647   
O6       O      0.943120000000     0.995970000000     0.529770000000    -0.425114   
O7       O      0.991330000000     0.945050000000     0.531860000000    -0.420933   
O8       O      0.994040000000     0.044250000000     0.528070000000    -0.443472   
O9       O      0.024960000000     0.494210000000     0.546730000000    -0.448976   
O10      O      0.022320000000     0.493730000000     0.447480000000    -0.450141   
O11      O      0.023210000000     0.543570000000     0.496900000000    -0.448743   
O12      O      0.024140000000     0.444280000000     0.497340000000    -0.448548   
O13      O      0.966570000000     0.443780000000     0.498960000000    -0.445423   
O14      O      0.965630000000     0.543000000000     0.498250000000    -0.446635   
O15      O      0.964980000000     0.493030000000     0.448930000000    -0.426897   
O16      O      0.967370000000     0.493860000000     0.548210000000    -0.449302   
O17      O      0.542830000000     0.960700000000     0.491210000000    -0.441143   
O18      O      0.443470000000     0.959330000000     0.493190000000    -0.441291   
O19      O      0.492090000000     0.960080000000     0.442650000000    -0.428862   
O20      O      0.494170000000     0.960030000000     0.541750000000    -0.428779   
O21      O      0.493130000000     0.017370000000     0.541940000000    -0.449175   
O22      O      0.491540000000     0.017430000000     0.442550000000    -0.449434   
O23      O      0.442770000000     0.016910000000     0.492990000000    -0.449011   
O24      O      0.541930000000     0.018280000000     0.491460000000    -0.448908   
O25      O      0.518510000000     0.996830000000     0.042310000000    -0.44914    
O26      O      0.519870000000     0.996780000000     0.943090000000    -0.448309   
O27      O      0.518980000000     0.046460000000     0.992720000000    -0.449443   
O28      O      0.519090000000     0.947090000000     0.992750000000    -0.44893    
O29      O      0.461740000000     0.947130000000     0.991800000000    -0.428001   
O30      O      0.461630000000     0.046300000000     0.991970000000    -0.428362   
O31      O      0.462290000000     0.996820000000     0.942250000000    -0.440894   
O32      O      0.460930000000     0.996640000000     0.041550000000    -0.442975   
O33      O      0.002200000000     0.476150000000     0.046590000000    -0.448271   
O34      O      0.002990000000     0.478800000000     0.947420000000    -0.450056   
O35      O      0.052320000000     0.477610000000     0.997350000000    -0.448833   
O36      O      0.952910000000     0.477630000000     0.996590000000    -0.448664   
O37      O      0.953070000000     0.534940000000     0.998230000000    -0.425733   
O38      O      0.052160000000     0.534930000000     0.998710000000    -0.426423   
O39      O      0.002790000000     0.536120000000     0.948810000000    -0.421586   
O40      O      0.002350000000     0.533710000000     0.048150000000    -0.441044   
O41      O      0.502710000000     0.447030000000     0.024110000000    -0.448662   
O42      O      0.502780000000     0.546410000000     0.023940000000    -0.448343   
O43      O      0.453150000000     0.496750000000     0.024230000000    -0.449894   
O44      O      0.552320000000     0.496690000000     0.023940000000    -0.450124   
O45      O      0.552260000000     0.496540000000     0.966320000000    -0.448575   
O46      O      0.452890000000     0.496640000000     0.966610000000    -0.448634   
O47      O      0.502600000000     0.546220000000     0.966330000000    -0.449531   
O48      O      0.502500000000     0.447030000000     0.966490000000    -0.450125   


