data_structure

_audit_creation_method RASPA-1.0
_audit_creation_date 2023-5-19
_audit_author_name 'Poobodin Mano'

_cell_length_a    38.5603
_cell_length_b    38.5603
_cell_length_c    38.5595
_cell_angle_alpha 90
_cell_angle_beta  90
_cell_angle_gamma 90
_cell_volume      57334

_symmetry_cell_setting          triclinic
_symmetry_space_group_name_Hall 'P 1'
_symmetry_space_group_name_H-M  'P 1'
_symmetry_Int_Tables_number     1

_symmetry_equiv_pos_as_xyz 'x,y,z'

loop_
_atom_site_label
_atom_site_type_symbol
_atom_site_fract_x
_atom_site_fract_y
_atom_site_fract_z
_atom_site_charge
C1       C      0.994010000000     0.929330000000     0.496940000000     0.46052    
C2       C      0.993900000000     0.062070000000     0.497310000000     0.437379   
C3       C      0.060300000000     0.995810000000     0.497330000000     0.460196   
C4       C      0.927500000000     0.995740000000     0.497180000000     0.460058   
C5       C      0.996910000000     0.562060000000     0.497410000000     0.435464   
C6       C      0.997620000000     0.429330000000     0.496450000000     0.459114   
C7       C      0.997430000000     0.495200000000     0.563190000000     0.43659    
C8       C      0.997100000000     0.496200000000     0.430520000000     0.43625    
C9       C      0.493680000000     0.996980000000     0.428650000000     0.435358   
C10      C      0.494140000000     0.996610000000     0.561330000000     0.435543   
C11      C      0.560240000000     0.996810000000     0.494730000000     0.43525    
C12      C      0.427560000000     0.996770000000     0.495140000000     0.435547   
C13      C      0.497900000000     0.997700000000     0.061440000000     0.46118    
C14      C      0.498400000000     0.996990000000     0.928640000000     0.461017   
C15      C      0.497090000000     0.063750000000     0.994710000000     0.46105    
C16      C      0.499070000000     0.930980000000     0.995510000000     0.461299   
C17      C      0.997010000000     0.496330000000     0.063190000000     0.460497   
C18      C      0.997720000000     0.493630000000     0.930430000000     0.460301   
C19      C      0.063730000000     0.495600000000     0.997130000000     0.437379   
C20      C      0.931000000000     0.494280000000     0.996400000000     0.461386   
C21      C      0.497270000000     0.431050000000     0.996870000000     0.436711   
C22      C      0.497580000000     0.563720000000     0.997500000000     0.436311   
C23      C      0.431020000000     0.497520000000     0.998120000000     0.459207   
C24      C      0.563740000000     0.497210000000     0.996430000000     0.43567    
C25      C      0.840700000000     0.463390000000     0.997230000000    -0.218385   
C26      C      0.617090000000     0.497720000000     0.965200000000     0.0770009  
C27      C      0.617580000000     0.496060000000     0.026660000000     0.0774052  
C28      C      0.653310000000     0.497480000000     0.964450000000    -0.0923185  
C29      C      0.729370000000     0.517440000000     0.972730000000    -0.0376084  
C30      C      0.765620000000     0.517140000000     0.972790000000    -0.0222661  
C31      C      0.710620000000     0.495790000000     0.995280000000    -0.00113458 
C32      C      0.653780000000     0.495630000000     0.026840000000    -0.0923171  
C33      C      0.783920000000     0.495020000000     0.995270000000    -0.0255699  
C34      C      0.841280000000     0.525630000000     0.993850000000    -0.126622   
C35      C      0.765160000000     0.473260000000     0.017710000000    -0.0216584  
C36      C      0.877470000000     0.524840000000     0.994310000000     0.101593   
C37      C      0.876940000000     0.463380000000     0.997480000000     0.420056   
C38      C      0.728930000000     0.473690000000     0.017760000000    -0.0369792  
C39      C      0.672110000000     0.496320000000     0.995500000000     0.0515586  
C40      C      0.822440000000     0.494680000000     0.995400000000     0.111975   
C41      C      0.340830000000     0.496340000000     0.029360000000    -0.219358   
C42      C      0.117080000000     0.526780000000     0.996060000000     0.0793391  
C43      C      0.117580000000     0.465350000000     0.998520000000     0.0797914  
C44      C      0.153300000000     0.527530000000     0.996050000000    -0.0912074  
C45      C      0.229110000000     0.519100000000     0.975490000000    -0.0378833  
C46      C      0.265350000000     0.519240000000     0.975560000000    -0.0223935  
C47      C      0.210620000000     0.496790000000     0.997620000000    -0.000643728
C48      C      0.153790000000     0.465180000000     0.998730000000    -0.0911231  
C49      C      0.283920000000     0.497230000000     0.997920000000    -0.0263031  
C50      C      0.341160000000     0.498670000000     0.967060000000    -0.127975   
C51      C      0.265430000000     0.474990000000     0.020110000000    -0.0216984  
C52      C      0.377350000000     0.498610000000     0.967730000000     0.0984518  
C53      C      0.377070000000     0.496490000000     0.029240000000     0.416884   
C54      C      0.229200000000     0.474710000000     0.019900000000    -0.0370401  
C55      C      0.172110000000     0.496500000000     0.997450000000     0.052299   
C56      C      0.322440000000     0.497440000000     0.998110000000     0.110734   
C57      C      0.530180000000     0.840750000000     0.997620000000    -0.217733   
C58      C      0.496590000000     0.617360000000     0.966880000000     0.0775696  
C59      C      0.498950000000     0.617290000000     0.028320000000     0.0787431  
C60      C      0.496610000000     0.653560000000     0.966450000000    -0.0924531  
C61      C      0.475950000000     0.729150000000     0.975320000000    -0.0377029  
C62      C      0.476130000000     0.765390000000     0.975150000000    -0.0224715  
C63      C      0.498070000000     0.710610000000     0.997590000000    -0.00108864 
C64      C      0.499190000000     0.653520000000     0.028810000000    -0.0916503  
C65      C      0.498570000000     0.783900000000     0.997110000000    -0.0255905  
C66      C      0.467890000000     0.841190000000     0.995470000000    -0.127211   
C67      C      0.520720000000     0.765370000000     0.019360000000    -0.0217085  
C68      C      0.468620000000     0.877370000000     0.995150000000     0.100396   
C69      C      0.530130000000     0.877000000000     0.997090000000     0.421017   
C70      C      0.520400000000     0.729120000000     0.019670000000    -0.0368194  
C71      C      0.497960000000     0.672100000000     0.997630000000     0.0518841  
C72      C      0.498880000000     0.822420000000     0.996760000000     0.111774   
C73      C      0.465740000000     0.153900000000     0.993610000000    -0.218668   
C74      C      0.498360000000     0.377230000000     0.027240000000     0.0789878  
C75      C      0.496120000000     0.377650000000     0.965800000000     0.0779858  
C76      C      0.498460000000     0.341010000000     0.027450000000    -0.0913885  
C77      C      0.519290000000     0.265410000000     0.017970000000    -0.037134   
C78      C      0.519310000000     0.229170000000     0.017620000000    -0.0220713  
C79      C      0.497190000000     0.284140000000     0.995840000000    -0.000895342
C80      C      0.496020000000     0.341440000000     0.965080000000    -0.0923005  
C81      C      0.497090000000     0.210850000000     0.995260000000    -0.0253398  
C82      C      0.528020000000     0.153650000000     0.996210000000    -0.125435   
C83      C      0.474950000000     0.229580000000     0.973180000000    -0.0217979  
C84      C      0.527410000000     0.117450000000     0.995930000000     0.102508   
C85      C      0.465910000000     0.117660000000     0.993540000000     0.41856    
C86      C      0.475060000000     0.265820000000     0.973410000000    -0.0369044  
C87      C      0.497230000000     0.322660000000     0.996130000000     0.0520847  
C88      C      0.496960000000     0.172330000000     0.995020000000     0.111776   
C89      C      0.528740000000     0.998120000000     0.838140000000    -0.218072   
C90      C      0.495350000000     0.027240000000     0.614980000000     0.0769759  
C91      C      0.493660000000     0.965780000000     0.614900000000     0.0769813  
C92      C      0.495830000000     0.027650000000     0.651190000000    -0.0925382  
C93      C      0.517860000000     0.018880000000     0.726440000000    -0.0369801  
C94      C      0.518460000000     0.018830000000     0.762680000000    -0.0217187  
C95      C      0.495670000000     0.996400000000     0.708240000000    -0.00122818 
C96      C      0.493930000000     0.965260000000     0.651120000000    -0.092525   
C97      C      0.496750000000     0.996430000000     0.781540000000    -0.0255014  
C98      C      0.466500000000     0.994940000000     0.839100000000    -0.126494   
C99      C      0.474500000000     0.974000000000     0.763350000000    -0.0223861  
C100     C      0.467520000000     0.995220000000     0.875290000000     0.101331   
C101     C      0.528980000000     0.998180000000     0.874390000000     0.420134   
C102     C      0.474030000000     0.973920000000     0.727100000000    -0.0377508  
C103     C      0.495110000000     0.996430000000     0.669720000000     0.0514869  
C104     C      0.497330000000     0.996470000000     0.820060000000     0.111789   
C105     C      0.527700000000     0.996870000000     0.152100000000    -0.218101   
C106     C      0.492610000000     0.027820000000     0.375100000000     0.0768762  
C107     C      0.494650000000     0.966370000000     0.374990000000     0.0768396  
C108     C      0.492610000000     0.028350000000     0.338880000000    -0.0926419  
C109     C      0.472340000000     0.019480000000     0.262990000000    -0.037655   
C110     C      0.472800000000     0.019510000000     0.226740000000    -0.0226849  
C111     C      0.494310000000     0.997250000000     0.281770000000    -0.00160239 
C112     C      0.494890000000     0.965970000000     0.338780000000    -0.0929326  
C113     C      0.495410000000     0.997490000000     0.208490000000    -0.0256217  
C114     C      0.465410000000     0.998680000000     0.150800000000    -0.126505   
C115     C      0.517390000000     0.975300000000     0.227280000000    -0.0222676  
C116     C      0.466640000000     0.998600000000     0.114610000000     0.101028   
C117     C      0.528150000000     0.997020000000     0.115860000000     0.419862   
C118     C      0.516780000000     0.975110000000     0.263510000000    -0.0370719  
C119     C      0.493870000000     0.997200000000     0.320270000000     0.0514311  
C120     C      0.496160000000     0.997710000000     0.169990000000     0.111596   
C121     C      0.997030000000     0.462020000000     0.840350000000    -0.21834    
C122     C      0.028310000000     0.495890000000     0.616700000000     0.0788935  
C123     C      0.966870000000     0.493460000000     0.616870000000     0.077721   
C124     C      0.028890000000     0.495650000000     0.652910000000    -0.0915265  
C125     C      0.020070000000     0.515960000000     0.728690000000    -0.0378746  
C126     C      0.020070000000     0.515800000000     0.764930000000    -0.0225453  
C127     C      0.997890000000     0.493820000000     0.710070000000    -0.00109603 
C128     C      0.966530000000     0.492990000000     0.653090000000    -0.0923895  
C129     C      0.998040000000     0.493350000000     0.783350000000    -0.0259386  
C130     C      0.998920000000     0.524330000000     0.840480000000    -0.12763    
C131     C      0.975970000000     0.471100000000     0.764730000000    -0.0219563  
C132     C      0.998730000000     0.523780000000     0.876670000000     0.0995479  
C133     C      0.997060000000     0.462270000000     0.876610000000     0.41896    
C134     C      0.975820000000     0.471400000000     0.728490000000    -0.0370292  
C135     C      0.997770000000     0.494130000000     0.671560000000     0.0518307  
C136     C      0.998010000000     0.493220000000     0.821870000000     0.111211   
C137     C      0.995250000000     0.528020000000     0.153230000000    -0.218885   
C138     C      0.966270000000     0.497350000000     0.376970000000     0.0775154  
C139     C      0.027730000000     0.495640000000     0.376850000000     0.0785689  
C140     C      0.965740000000     0.497600000000     0.340750000000    -0.0922741  
C141     C      0.019270000000     0.474820000000     0.265020000000    -0.037689   
C142     C      0.019170000000     0.474800000000     0.228780000000    -0.0220922  
C143     C      0.996850000000     0.496740000000     0.283600000000    -0.000920774
C144     C      0.028130000000     0.495680000000     0.340630000000    -0.0914485  
C145     C      0.996770000000     0.496840000000     0.210300000000    -0.0258752  
C146     C      0.998250000000     0.465760000000     0.153200000000    -0.126605   
C147     C      0.974410000000     0.518830000000     0.228880000000    -0.02183    
C148     C      0.998190000000     0.466250000000     0.117010000000     0.100921   
C149     C      0.995410000000     0.527730000000     0.116980000000     0.418001   
C150     C      0.974380000000     0.518720000000     0.265130000000    -0.0374253  
C151     C      0.996900000000     0.496690000000     0.322120000000     0.0516488  
C152     C      0.996750000000     0.496880000000     0.171770000000     0.111435   
C153     C      0.150780000000     0.997150000000     0.527660000000    -0.218922   
C154     C      0.373950000000     0.966050000000     0.494010000000     0.0766622  
C155     C      0.373950000000     0.027490000000     0.496160000000     0.0768817  
C156     C      0.337730000000     0.965590000000     0.493850000000    -0.092768   
C157     C      0.262040000000     0.974560000000     0.473060000000    -0.0379937  
C158     C      0.225790000000     0.974540000000     0.473250000000    -0.0227473  
C159     C      0.280660000000     0.996780000000     0.495170000000    -0.0015689  
C160     C      0.337740000000     0.027960000000     0.496240000000    -0.0927951  
C161     C      0.207370000000     0.996570000000     0.495710000000    -0.026031   
C162     C      0.149860000000     0.995180000000     0.465370000000    -0.126752   
C163     C      0.226010000000     0.018770000000     0.517820000000    -0.0222594  
C164     C      0.113660000000     0.995120000000     0.466380000000     0.100379   
C165     C      0.114540000000     0.996860000000     0.527890000000     0.417833   
C166     C      0.262240000000     0.018950000000     0.517480000000    -0.0373922  
C167     C      0.319180000000     0.996780000000     0.495040000000     0.051271   
C168     C      0.168860000000     0.996290000000     0.496230000000     0.111176   
C169     C      0.836960000000     0.997380000000     0.527300000000    -0.219029   
C170     C      0.613830000000     0.027560000000     0.495320000000     0.0770176  
C171     C      0.613850000000     0.966100000000     0.493670000000     0.0769821  
C172     C      0.650050000000     0.028040000000     0.495340000000    -0.0925847  
C173     C      0.725790000000     0.974450000000     0.472660000000    -0.0377579  
C174     C      0.762040000000     0.974400000000     0.472910000000    -0.0226512  
C175     C      0.707140000000     0.996860000000     0.494550000000    -0.0014145  
C176     C      0.650070000000     0.965660000000     0.493470000000    -0.0925235  
C177     C      0.780430000000     0.996600000000     0.495230000000    -0.0259148  
C178     C      0.838010000000     0.994880000000     0.465020000000    -0.126838   
C179     C      0.761770000000     0.019010000000     0.517110000000    -0.0221897  
C180     C      0.874210000000     0.994790000000     0.466120000000     0.100161   
C181     C      0.873190000000     0.997060000000     0.527610000000     0.417918   
C182     C      0.725540000000     0.019210000000     0.516710000000    -0.037255   
C183     C      0.668620000000     0.996860000000     0.494390000000     0.05148    
C184     C      0.818940000000     0.996280000000     0.495830000000     0.111152   
C185     C      0.995930000000     0.838930000000     0.466440000000    -0.218986   
C186     C      0.027370000000     0.615820000000     0.496880000000     0.0770432  
C187     C      0.965920000000     0.615500000000     0.499060000000     0.0768293  
C188     C      0.027650000000     0.652040000000     0.497090000000    -0.0923844  
C189     C      0.018310000000     0.727610000000     0.476350000000    -0.0372398  
C190     C      0.017920000000     0.763840000000     0.476160000000    -0.0220494  
C191     C      0.996180000000     0.708960000000     0.498510000000    -0.00138726 
C192     C      0.965280000000     0.651710000000     0.499500000000    -0.0925618  
C193     C      0.995510000000     0.782250000000     0.498250000000    -0.0256909  
C194     C      0.993510000000     0.839700000000     0.528720000000    -0.125822   
C195     C      0.973530000000     0.763620000000     0.520570000000    -0.0226265  
C196     C      0.993250000000     0.875910000000     0.527780000000     0.101813   
C197     C      0.995450000000     0.875160000000     0.466280000000     0.418139   
C198     C      0.973780000000     0.727360000000     0.520620000000    -0.0377416  
C199     C      0.996370000000     0.670440000000     0.498430000000     0.0513389  
C200     C      0.994970000000     0.820770000000     0.497820000000     0.111482   
C201     C      0.027980000000     0.338840000000     0.497870000000    -0.219166   
C202     C      0.995010000000     0.115670000000     0.528070000000     0.080864   
C203     C      0.993180000000     0.115680000000     0.466610000000     0.078845   
C204     C      0.995370000000     0.151890000000     0.528520000000    -0.0903817  
C205     C      0.973100000000     0.227700000000     0.474860000000    -0.0380016  
C206     C      0.973550000000     0.263940000000     0.474760000000    -0.0223629  
C207     C      0.994910000000     0.208960000000     0.497270000000    -0.000537876
C208     C      0.993330000000     0.151890000000     0.466140000000    -0.0917345  
C209     C      0.995950000000     0.282250000000     0.496930000000    -0.0263201  
C210     C      0.965710000000     0.339780000000     0.495310000000    -0.127844   
C211     C      0.017790000000     0.263520000000     0.519310000000    -0.0215309  
C212     C      0.966730000000     0.375970000000     0.495290000000     0.0985823  
C213     C      0.028220000000     0.375090000000     0.497630000000     0.416871   
C214     C      0.017200000000     0.227280000000     0.519560000000    -0.0371538  
C215     C      0.994500000000     0.170450000000     0.497320000000     0.0523579  
C216     C      0.996550000000     0.320760000000     0.496690000000     0.110792   
F1       F      0.893100000000     0.432100000000     0.999210000000    -0.443322   
F2       F      0.393360000000     0.495460000000     0.060480000000    -0.450275   
F3       F      0.561400000000     0.893260000000     0.997870000000    -0.437561   
F4       F      0.434700000000     0.101330000000     0.992250000000    -0.449222   
F5       F      0.560360000000     0.999740000000     0.890370000000    -0.441835   
F6       F      0.559660000000     0.996240000000     0.100070000000    -0.441335   
F7       F      0.996170000000     0.431090000000     0.893020000000    -0.44349    
F8       F      0.994020000000     0.558860000000     0.100520000000    -0.449398   
F9       F      0.098570000000     0.997660000000     0.559310000000    -0.447888   
F10      F      0.889100000000     0.998100000000     0.559050000000    -0.447707   
F11      F      0.996370000000     0.891200000000     0.434900000000    -0.44946    
F12      F      0.059610000000     0.391080000000     0.498740000000    -0.450356   
H1       H      0.604500000000     0.495580000000     0.051540000000     0.0297386  
H2       H      0.890860000000     0.549540000000     0.993210000000     0.028948   
H3       H      0.715240000000     0.456460000000     0.035220000000     0.0440072  
H4       H      0.779320000000     0.533980000000     0.954980000000     0.0395317  
H5       H      0.828170000000     0.550450000000     0.992810000000     0.0674786  
H6       H      0.716010000000     0.534970000000     0.955310000000     0.0429127  
H7       H      0.827030000000     0.438860000000     0.998060000000     0.121287   
H8       H      0.667300000000     0.495170000000     0.051460000000     0.05716    
H9       H      0.666480000000     0.497680000000     0.939630000000     0.056839   
H10      H      0.778500000000     0.456160000000     0.035560000000     0.0438831  
H11      H      0.603580000000     0.498450000000     0.940550000000     0.0284418  
H12      H      0.104490000000     0.440480000000     0.999420000000     0.0346555  
H13      H      0.390650000000     0.499440000000     0.942970000000     0.0235093  
H14      H      0.215710000000     0.457450000000     0.037490000000     0.0446731  
H15      H      0.278850000000     0.536890000000     0.958370000000     0.0382947  
H16      H      0.327950000000     0.499170000000     0.942280000000     0.0651377  
H17      H      0.215540000000     0.536190000000     0.957800000000     0.0429583  
H18      H      0.327260000000     0.495780000000     0.053950000000     0.119435   
H19      H      0.167330000000     0.440570000000     0.999430000000     0.0589771  
H20      H      0.166450000000     0.552350000000     0.995430000000     0.0582626  
H21      H      0.278990000000     0.457490000000     0.037400000000     0.0433321  
H22      H      0.103580000000     0.551420000000     0.995090000000     0.0330938  
H23      H      0.499800000000     0.603950000000     0.053060000000     0.0326966  
H24      H      0.443870000000     0.890690000000     0.994260000000     0.0256     
H25      H      0.537960000000     0.715580000000     0.036910000000     0.0444265  
H26      H      0.458980000000     0.778910000000     0.957490000000     0.0389808  
H27      H      0.443070000000     0.828020000000     0.995150000000     0.0659831  
H28      H      0.458220000000     0.715640000000     0.958230000000     0.0426453  
H29      H      0.554740000000     0.827130000000     0.998240000000     0.122433   
H30      H      0.499880000000     0.666850000000     0.053520000000     0.0582551  
H31      H      0.496040000000     0.666920000000     0.941740000000     0.0566877  
H32      H      0.538080000000     0.778900000000     0.036820000000     0.0447602  
H33      H      0.495650000000     0.604100000000     0.942100000000     0.0283853  
H34      H      0.495280000000     0.391110000000     0.941120000000     0.0287202  
H35      H      0.552180000000     0.104190000000     0.996800000000     0.0348026  
H36      H      0.457500000000     0.279500000000     0.956270000000     0.0441275  
H37      H      0.536450000000     0.215480000000     0.035160000000     0.0408791  
H38      H      0.552780000000     0.166890000000     0.996920000000     0.0694581  
H39      H      0.536870000000     0.278780000000     0.035330000000     0.0436532  
H40      H      0.441130000000     0.167440000000     0.993040000000     0.119851   
H41      H      0.495440000000     0.328280000000     0.940270000000     0.0570184  
H42      H      0.499030000000     0.327490000000     0.052070000000     0.0585346  
H43      H      0.457750000000     0.216220000000     0.955430000000     0.0436288  
H44      H      0.499210000000     0.390360000000     0.052090000000     0.033023   
H45      H      0.492900000000     0.941030000000     0.601570000000     0.0283172  
H46      H      0.442900000000     0.994130000000     0.888820000000     0.0287437  
H47      H      0.456430000000     0.956510000000     0.713830000000     0.0425653  
H48      H      0.535660000000     0.036640000000     0.775940000000     0.0441535  
H49      H      0.441590000000     0.994020000000     0.826140000000     0.0670811  
H50      H      0.535070000000     0.036280000000     0.712670000000     0.0440335  
H51      H      0.553190000000     0.998930000000     0.824330000000     0.121681   
H52      H      0.493720000000     0.940530000000     0.664440000000     0.0567739  
H53      H      0.496330000000     0.052350000000     0.664560000000     0.0566948  
H54      H      0.457690000000     0.956220000000     0.777130000000     0.0392082  
H55      H      0.495850000000     0.052030000000     0.601720000000     0.0283799  
H56      H      0.495390000000     0.941580000000     0.388230000000     0.0281572  
H57      H      0.442080000000     0.999220000000     0.100920000000     0.0288523  
H58      H      0.534240000000     0.957910000000     0.277240000000     0.0438002  
H59      H      0.455760000000     0.037100000000     0.212990000000     0.0399162  
H60      H      0.440420000000     0.999000000000     0.163640000000     0.0669174  
H61      H      0.454520000000     0.036620000000     0.276320000000     0.0426486  
H62      H      0.552090000000     0.996520000000     0.166050000000     0.121422   
H63      H      0.495480000000     0.941290000000     0.325390000000     0.0565241  
H64      H      0.492160000000     0.053080000000     0.325570000000     0.0568114  
H65      H      0.534870000000     0.957800000000     0.213960000000     0.0444568  
H66      H      0.491800000000     0.052560000000     0.388450000000     0.0283356  
H67      H      0.942070000000     0.492670000000     0.603650000000     0.0284738  
H68      H      0.999330000000     0.548610000000     0.889860000000     0.0253012  
H69      H      0.958670000000     0.453810000000     0.714880000000     0.0444884  
H70      H      0.037600000000     0.533020000000     0.778530000000     0.0386245  
H71      H      0.999300000000     0.549070000000     0.827190000000     0.0656947  
H72      H      0.037150000000     0.533750000000     0.715240000000     0.042532   
H73      H      0.996690000000     0.437380000000     0.826850000000     0.121161   
H74      H      0.941860000000     0.492200000000     0.666510000000     0.0566001  
H75      H      0.053640000000     0.496180000000     0.666190000000     0.0582344  
H76      H      0.958480000000     0.453720000000     0.778190000000     0.0444093  
H77      H      0.053030000000     0.496950000000     0.603340000000     0.0328852  
H78      H      0.052520000000     0.494960000000     0.390090000000     0.0329731  
H79      H      0.999290000000     0.441430000000     0.103850000000     0.0299807  
H80      H      0.957010000000     0.536130000000     0.278690000000     0.0437615  
H81      H      0.036930000000     0.457780000000     0.215210000000     0.0395964  
H82      H      0.999040000000     0.441050000000     0.166530000000     0.0676484  
H83      H      0.036670000000     0.457360000000     0.278500000000     0.0440165  
H84      H      0.994430000000     0.552670000000     0.166690000000     0.119668   
H85      H      0.052820000000     0.495360000000     0.327240000000     0.0582946  
H86      H      0.941000000000     0.498010000000     0.327440000000     0.0566876  
H87      H      0.956630000000     0.535890000000     0.215390000000     0.0434464  
H88      H      0.941530000000     0.497930000000     0.390310000000     0.0284845  
H89      H      0.387250000000     0.052260000000     0.496990000000     0.0282961  
H90      H      0.100120000000     0.994390000000     0.441750000000     0.0289123  
H91      H      0.275850000000     0.036140000000     0.535040000000     0.0435102  
H92      H      0.212170000000     0.956930000000     0.456120000000     0.0396935  
H93      H      0.162840000000     0.994840000000     0.440460000000     0.0668407  
H94      H      0.275490000000     0.957410000000     0.455350000000     0.042523   
H95      H      0.164580000000     0.997610000000     0.552130000000     0.119808   
H96      H      0.324390000000     0.052670000000     0.496800000000     0.0565034  
H97      H      0.324380000000     0.940880000000     0.493300000000     0.0564751  
H98      H      0.212560000000     0.036280000000     0.535190000000     0.0431751  
H99      H      0.387250000000     0.941290000000     0.493200000000     0.0281294  
H100     H      0.600570000000     0.941330000000     0.493100000000     0.02835    
H101     H      0.887810000000     0.993850000000     0.441530000000     0.0287182  
H102     H      0.711910000000     0.036560000000     0.534090000000     0.0436913  
H103     H      0.775670000000     0.956640000000     0.455960000000     0.039999   
H104     H      0.825090000000     0.994350000000     0.440090000000     0.0670148  
H105     H      0.712350000000     0.957160000000     0.455070000000     0.0428809  
H106     H      0.823100000000     0.998060000000     0.551730000000     0.12019    
H107     H      0.663430000000     0.940950000000     0.493110000000     0.0568256  
H108     H      0.663390000000     0.052760000000     0.495680000000     0.0564615  
H109     H      0.775200000000     0.036650000000     0.534360000000     0.0432492  
H110     H      0.600530000000     0.052330000000     0.495960000000     0.0283129  
H111     H      0.941230000000     0.602070000000     0.499760000000     0.0282748  
H112     H      0.992280000000     0.889400000000     0.552430000000     0.0328767  
H113     H      0.956640000000     0.713740000000     0.538220000000     0.0427062  
H114     H      0.035410000000     0.777450000000     0.458900000000     0.0433185  
H115     H      0.993070000000     0.826670000000     0.553600000000     0.0683219  
H116     H      0.035650000000     0.714180000000     0.458800000000     0.0437391  
H117     H      0.996620000000     0.825180000000     0.441950000000     0.119608   
H118     H      0.940500000000     0.664930000000     0.500150000000     0.0566052  
H119     H      0.052290000000     0.665510000000     0.496630000000     0.0568744  
H120     H      0.955770000000     0.777060000000     0.537680000000     0.0400559  
H121     H      0.052190000000     0.602660000000     0.495930000000     0.0295622  
H122     H      0.992420000000     0.102400000000     0.441840000000     0.0304595  
H123     H      0.942100000000     0.389500000000     0.494350000000     0.023661   
H124     H      0.034540000000     0.213590000000     0.536910000000     0.045577   
H125     H      0.956620000000     0.277620000000     0.457000000000     0.0384789  
H126     H      0.940790000000     0.326820000000     0.494730000000     0.0652817  
H127     H      0.955420000000     0.214340000000     0.457600000000     0.0431296  
H128     H      0.052430000000     0.325020000000     0.498550000000     0.119312   
H129     H      0.993020000000     0.165230000000     0.441420000000     0.0575092  
H130     H      0.995900000000     0.165250000000     0.553230000000     0.0603048  
H131     H      0.035100000000     0.276890000000     0.536930000000     0.0436472  
H132     H      0.995600000000     0.102370000000     0.552830000000     0.0384324  
N1       N      0.895330000000     0.494020000000     0.996080000000    -0.245995   
N2       N      0.599330000000     0.497020000000     0.996080000000    -0.198225   
N3       N      0.395340000000     0.497550000000     0.998510000000    -0.247473   
N4       N      0.099320000000     0.495910000000     0.997250000000    -0.196678   
N5       N      0.499440000000     0.895310000000     0.995900000000    -0.246014   
N6       N      0.497700000000     0.599320000000     0.997590000000    -0.197602   
N7       N      0.496650000000     0.099430000000     0.994700000000    -0.245698   
N8       N      0.497240000000     0.395450000000     0.996640000000    -0.197509   
N9       N      0.498460000000     0.996800000000     0.892970000000    -0.245899   
N10      N      0.494360000000     0.996530000000     0.596930000000    -0.198301   
N11      N      0.497710000000     0.997790000000     0.097110000000    -0.245984   
N12      N      0.493630000000     0.997060000000     0.393050000000    -0.198358   
N13      N      0.997840000000     0.493060000000     0.894760000000    -0.246824   
N14      N      0.997530000000     0.494860000000     0.598780000000    -0.197586   
N15      N      0.996860000000     0.496930000000     0.098870000000    -0.246466   
N16      N      0.997030000000     0.496410000000     0.394920000000    -0.19755    
N17      N      0.095980000000     0.995920000000     0.497350000000    -0.246565   
N18      N      0.391960000000     0.996770000000     0.495120000000    -0.198393   
N19      N      0.891830000000     0.995850000000     0.497120000000    -0.246669   
N20      N      0.595840000000     0.996820000000     0.494570000000    -0.198268   
N21      N      0.994210000000     0.893660000000     0.496860000000    -0.245987   
N22      N      0.996730000000     0.597660000000     0.497770000000    -0.198165   
N23      N      0.997680000000     0.393650000000     0.496430000000    -0.247498   
N24      N      0.994000000000     0.097670000000     0.497340000000    -0.196406   
Ni1      Ni     0.993940000000     0.995800000000     0.466380000000     1.01775    
Ni2      Ni     0.993870000000     0.995670000000     0.527980000000     1.03723    
Ni3      Ni     0.966430000000     0.495560000000     0.496930000000     1.00345    
Ni4      Ni     0.028080000000     0.495880000000     0.496780000000     1.023      
Ni5      Ni     0.493880000000     0.027630000000     0.495080000000     1.00669    
Ni6      Ni     0.493900000000     0.965950000000     0.494880000000     1.00619    
Ni7      Ni     0.528890000000     0.997810000000     0.995180000000     1.05325    
Ni8      Ni     0.467310000000     0.996920000000     0.994920000000     1.01557    
Ni9      Ni     0.997690000000     0.464180000000     0.997440000000     1.03741    
Ni10     Ni     0.997100000000     0.525770000000     0.996180000000     1.01787    
Ni11     Ni     0.497810000000     0.497220000000     0.028040000000     1.023      
Ni12     Ni     0.497000000000     0.497540000000     0.966400000000     1.00373    
O1       O      0.994130000000     0.946170000000     0.468250000000    -0.408164   
O2       O      0.993760000000     0.045440000000     0.468470000000    -0.448419   
O3       O      0.043640000000     0.995920000000     0.468480000000    -0.44812    
O4       O      0.944230000000     0.995620000000     0.468370000000    -0.448637   
O5       O      0.944240000000     0.995800000000     0.525930000000    -0.408954   
O6       O      0.043500000000     0.995620000000     0.526040000000    -0.408978   
O7       O      0.994000000000     0.045350000000     0.526110000000    -0.438263   
O8       O      0.993770000000     0.945960000000     0.525810000000    -0.444079   
O9       O      0.968180000000     0.545240000000     0.497580000000    -0.44897    
O10      O      0.968730000000     0.445910000000     0.496310000000    -0.453733   
O11      O      0.968570000000     0.494920000000     0.546590000000    -0.448473   
O12      O      0.968320000000     0.496210000000     0.447250000000    -0.448476   
O13      O      0.025960000000     0.495960000000     0.447130000000    -0.444536   
O14      O      0.026200000000     0.495770000000     0.546440000000    -0.444016   
O15      O      0.026300000000     0.446200000000     0.496710000000    -0.408543   
O16      O      0.025820000000     0.545540000000     0.496900000000    -0.449203   
O17      O      0.493560000000     0.025760000000     0.445400000000    -0.448804   
O18      O      0.494210000000     0.025470000000     0.544730000000    -0.448961   
O19      O      0.543550000000     0.025630000000     0.494820000000    -0.448652   
O20      O      0.444220000000     0.025600000000     0.495380000000    -0.448981   
O21      O      0.444240000000     0.967960000000     0.494880000000    -0.449196   
O22      O      0.543570000000     0.967980000000     0.494810000000    -0.448661   
O23      O      0.493920000000     0.967830000000     0.544580000000    -0.448581   
O24      O      0.493900000000     0.968110000000     0.445240000000    -0.449166   
O25      O      0.526700000000     0.997900000000     0.044800000000    -0.404334   
O26      O      0.527080000000     0.997650000000     0.945510000000    -0.404196   
O27      O      0.526140000000     0.047460000000     0.995050000000    -0.444297   
O28      O      0.527600000000     0.948110000000     0.995380000000    -0.399387   
O29      O      0.470050000000     0.947300000000     0.995330000000    -0.453669   
O30      O      0.468590000000     0.046590000000     0.994500000000    -0.408042   
O31      O      0.469530000000     0.996510000000     0.945250000000    -0.448172   
O32      O      0.469150000000     0.997380000000     0.044620000000    -0.448536   
O33      O      0.997540000000     0.467210000000     0.047050000000    -0.449233   
O34      O      0.997790000000     0.465200000000     0.947730000000    -0.404232   
O35      O      0.047320000000     0.466640000000     0.997560000000    -0.444549   
O36      O      0.948020000000     0.465710000000     0.997260000000    -0.403518   
O37      O      0.947440000000     0.523240000000     0.995790000000    -0.447972   
O38      O      0.046790000000     0.524260000000     0.996560000000    -0.443893   
O39      O      0.997530000000     0.522750000000     0.946580000000    -0.454032   
O40      O      0.996690000000     0.524750000000     0.045880000000    -0.408071   
O41      O      0.497690000000     0.447550000000     0.025780000000    -0.443693   
O42      O      0.497930000000     0.546930000000     0.026260000000    -0.443845   
O43      O      0.448130000000     0.497320000000     0.026650000000    -0.408787   
O44      O      0.547400000000     0.497090000000     0.025430000000    -0.449831   
O45      O      0.546730000000     0.497440000000     0.967790000000    -0.448327   
O46      O      0.447350000000     0.497680000000     0.969090000000    -0.453673   
O47      O      0.497130000000     0.547160000000     0.968630000000    -0.449128   
O48      O      0.496890000000     0.447880000000     0.968150000000    -0.448734   


