data_structure

_audit_creation_method RASPA-1.0
_audit_creation_date 2023-5-19
_audit_author_name 'Poobodin Mano'

_cell_length_a    21.6827
_cell_length_b    21.6827
_cell_length_c    21.6768
_cell_angle_alpha 89.997
_cell_angle_beta  89.997
_cell_angle_gamma 89.997
_cell_volume      10191.1

_symmetry_cell_setting          triclinic
_symmetry_space_group_name_Hall 'P 1'
_symmetry_space_group_name_H-M  'P 1'
_symmetry_Int_Tables_number     1

_symmetry_equiv_pos_as_xyz 'x,y,z'

loop_
_atom_site_label
_atom_site_type_symbol
_atom_site_fract_x
_atom_site_fract_y
_atom_site_fract_z
_atom_site_charge
C1       C      0.996070000000     0.878560000000     0.497260000000     0.378466   
C2       C      0.996250000000     0.113120000000     0.495530000000     0.378576   
C3       C      0.113390000000     0.996590000000     0.499000000000     0.378495   
C4       C      0.878860000000     0.995450000000     0.493890000000     0.378304   
C5       C      0.999830000000     0.493060000000     0.613530000000     0.376627   
C6       C      0.992920000000     0.498560000000     0.378990000000     0.37776    
C7       C      0.995260000000     0.613070000000     0.498280000000     0.37789    
C8       C      0.997450000000     0.378520000000     0.494280000000     0.377749   
C9       C      0.494090000000     0.997830000000     0.379040000000     0.377624   
C10      C      0.498000000000     0.995150000000     0.613600000000     0.377883   
C11      C      0.378810000000     0.998290000000     0.498720000000     0.377752   
C12      C      0.613340000000     0.994820000000     0.494220000000     0.377375   
C13      C      0.494040000000     0.113520000000     0.993820000000     0.378177   
C14      C      0.497500000000     0.878980000000     0.998310000000     0.377137   
C15      C      0.494500000000     0.998240000000     0.113500000000     0.377297   
C16      C      0.497170000000     0.994330000000     0.878950000000     0.378541   
C17      C      0.999250000000     0.492490000000     0.878990000000     0.377278   
C18      C      0.993760000000     0.499410000000     0.113530000000     0.378135   
C19      C      0.879240000000     0.497060000000     0.994250000000     0.378601   
C20      C      0.113790000000     0.494860000000     0.998240000000     0.377398   
C21      C      0.495730000000     0.378930000000     0.993520000000     0.377443   
C22      C      0.496850000000     0.613460000000     0.998640000000     0.377403   
C23      C      0.613760000000     0.496260000000     0.995280000000     0.377417   
C24      C      0.379190000000     0.496080000000     0.997000000000     0.377713   
C25      C      0.778480000000     0.537420000000     0.955770000000    -0.00082019 
C26      C      0.811400000000     0.497410000000     0.994570000000    -0.0909202  
C27      C      0.779020000000     0.457160000000     0.033620000000     0.000278407
C28      C      0.714590000000     0.457550000000     0.034560000000    -0.000826285
C29      C      0.681620000000     0.496670000000     0.994920000000    -0.0901956  
C30      C      0.713970000000     0.536280000000     0.955160000000    -0.00143072 
C31      C      0.213900000000     0.533800000000     0.957690000000    -0.000870511
C32      C      0.181620000000     0.494550000000     0.997830000000    -0.0899282  
C33      C      0.214630000000     0.455640000000     0.037660000000    -0.000442156
C34      C      0.279130000000     0.456940000000     0.038220000000     0.000323859
C35      C      0.311360000000     0.495540000000     0.997390000000    -0.0903197  
C36      C      0.278330000000     0.533490000000     0.956710000000    -0.000600834
C37      C      0.457750000000     0.778470000000     0.959770000000    -0.000991848
C38      C      0.497950000000     0.811120000000     0.998610000000    -0.090144   
C39      C      0.537610000000     0.778430000000     0.038030000000    -0.000387218
C40      C      0.536280000000     0.713890000000     0.039270000000    -0.000384948
C41      C      0.496820000000     0.681320000000     0.999550000000    -0.0901596  
C42      C      0.457950000000     0.714080000000     0.959480000000    -0.000953829
C43      C      0.533490000000     0.213690000000     0.953360000000    -0.000532246
C44      C      0.493240000000     0.181350000000     0.992470000000    -0.0903     
C45      C      0.453110000000     0.214310000000     0.031090000000    -0.000289037
C46      C      0.454400000000     0.278770000000     0.031790000000     0.000175289
C47      C      0.494270000000     0.311120000000     0.992310000000    -0.0901331  
C48      C      0.533230000000     0.278180000000     0.952480000000    -0.00128477 
C49      C      0.458160000000     0.954880000000     0.778250000000    -0.000468775
C50      C      0.497920000000     0.993960000000     0.811140000000    -0.090214   
C51      C      0.538050000000     0.033110000000     0.778770000000     0.0001549  
C52      C      0.537470000000     0.034130000000     0.714290000000     4.3677e-05 
C53      C      0.498360000000     0.994400000000     0.681400000000    -0.0900381  
C54      C      0.459180000000     0.954300000000     0.713770000000    -0.000614999
C55      C      0.532720000000     0.038540000000     0.278640000000    -0.00058732 
C56      C      0.493600000000     0.998500000000     0.311170000000    -0.0903278  
C57      C      0.454420000000     0.958740000000     0.278380000000    -0.00119904 
C58      C      0.453760000000     0.959630000000     0.213900000000    -0.00130649 
C59      C      0.493820000000     0.998730000000     0.181360000000    -0.0901521  
C60      C      0.533600000000     0.037880000000     0.214160000000    -0.000659161
C61      C      0.961730000000     0.451730000000     0.713850000000    -0.00149836 
C62      C      0.001470000000     0.491240000000     0.681360000000    -0.0877527  
C63      C      0.041580000000     0.529980000000     0.714180000000    -0.00156707 
C64      C      0.040590000000     0.530570000000     0.778670000000    -0.000704288
C65      C      0.001070000000     0.490840000000     0.811170000000    -0.0881109  
C66      C      0.962320000000     0.450750000000     0.778340000000    -0.00186896 
C67      C      0.031070000000     0.540020000000     0.278760000000    -6.08791e-05
C68      C      0.991300000000     0.500480000000     0.311170000000    -0.08999    
C69      C      0.951220000000     0.461780000000     0.278260000000    -0.00125252 
C70      C      0.952280000000     0.461260000000     0.213770000000    -0.000585372
C71      C      0.991840000000     0.501020000000     0.181350000000    -0.0899925  
C72      C      0.030550000000     0.541080000000     0.214260000000    -0.000648472
C73      C      0.213560000000     0.037850000000     0.460670000000     0.000182998
C74      C      0.181210000000     0.998050000000     0.500220000000    -0.0902021  
C75      C      0.214150000000     0.959170000000     0.540120000000    -0.00110209 
C76      C      0.278640000000     0.958910000000     0.539250000000    -0.000691229
C77      C      0.310980000000     0.999090000000     0.500060000000    -0.0900093  
C78      C      0.278020000000     0.039140000000     0.461370000000    -0.000569495
C79      C      0.778430000000     0.956040000000     0.453260000000    -0.000991315
C80      C      0.811000000000     0.995480000000     0.492990000000    -0.0903131  
C81      C      0.778250000000     0.034340000000     0.533070000000    -0.000147002
C82      C      0.713850000000     0.034540000000     0.532780000000    -0.000464287
C83      C      0.681210000000     0.994360000000     0.493920000000    -0.0898973  
C84      C      0.713890000000     0.954710000000     0.454490000000    -0.00127482 
C85      C      0.034780000000     0.777730000000     0.457970000000    -0.000826416
C86      C      0.995670000000     0.810700000000     0.497620000000    -0.0903008  
C87      C      0.956050000000     0.778340000000     0.537370000000    -0.00120005 
C88      C      0.954900000000     0.713840000000     0.536750000000    -0.00106984 
C89      C      0.994920000000     0.680920000000     0.497960000000    -0.0903     
C90      C      0.035170000000     0.713300000000     0.458920000000    -0.000214851
C91      C      0.036670000000     0.277690000000     0.454850000000    -0.000688995
C92      C      0.997760000000     0.310690000000     0.494690000000    -0.0897588  
C93      C      0.958510000000     0.278420000000     0.534840000000    -0.000895162
C94      C      0.958820000000     0.213990000000     0.535820000000    -0.000559199
C95      C      0.996780000000     0.180950000000     0.495130000000    -0.0901841  
C96      C      0.035370000000     0.213180000000     0.454300000000     0.000200806
H1       H      0.802630000000     0.568660000000     0.925140000000     0.0417284  
H2       H      0.803570000000     0.426090000000     0.064110000000     0.0408916  
H3       H      0.690510000000     0.426520000000     0.065470000000     0.041985   
H4       H      0.689360000000     0.567060000000     0.924430000000     0.0422007  
H5       H      0.189240000000     0.564000000000     0.926410000000     0.0405273  
H6       H      0.190540000000     0.425200000000     0.069130000000     0.0415405  
H7       H      0.303840000000     0.427070000000     0.069750000000     0.0405419  
H8       H      0.302360000000     0.563720000000     0.924970000000     0.0403221  
H9       H      0.426890000000     0.802810000000     0.928890000000     0.0407791  
H10      H      0.568730000000     0.802800000000     0.068600000000     0.0419447  
H11      H      0.566900000000     0.689430000000     0.070270000000     0.0420335  
H12      H      0.427080000000     0.689830000000     0.928540000000     0.0407049  
H13      H      0.564680000000     0.189060000000     0.923040000000     0.0405798  
H14      H      0.421900000000     0.190220000000     0.061790000000     0.0418691  
H15      H      0.423780000000     0.303380000000     0.062690000000     0.040794   
H16      H      0.564470000000     0.302300000000     0.921830000000     0.0414077  
H17      H      0.426990000000     0.924210000000     0.802450000000     0.0400161  
H18      H      0.568880000000     0.063810000000     0.803370000000     0.0401883  
H19      H      0.568170000000     0.065280000000     0.690090000000     0.0400575  
H20      H      0.428460000000     0.923500000000     0.689170000000     0.0401742  
H21      H      0.563500000000     0.069390000000     0.303100000000     0.0421814  
H22      H      0.423730000000     0.927640000000     0.302630000000     0.0420169  
H23      H      0.422900000000     0.928860000000     0.189440000000     0.0422583  
H24      H      0.564720000000     0.068550000000     0.189910000000     0.0421394  
H25      H      0.930570000000     0.421320000000     0.689320000000     0.0406294  
H26      H      0.072400000000     0.560980000000     0.689960000000     0.0416637  
H27      H      0.071020000000     0.561710000000     0.803210000000     0.0405989  
H28      H      0.931310000000     0.419940000000     0.802560000000     0.0415599  
H29      H      0.062210000000     0.570410000000     0.303350000000     0.0406418  
H30      H      0.920380000000     0.430750000000     0.302410000000     0.0416222  
H31      H      0.921890000000     0.430140000000     0.189170000000     0.040692   
H32      H      0.061590000000     0.571920000000     0.190110000000     0.0417372  
H33      H      0.188950000000     0.068410000000     0.429710000000     0.0408707  
H34      H      0.190030000000     0.927980000000     0.570830000000     0.0414416  
H35      H      0.303270000000     0.927780000000     0.569620000000     0.0405739  
H36      H      0.302110000000     0.070300000000     0.430610000000     0.0417778  
H37      H      0.802890000000     0.925430000000     0.422240000000     0.0419475  
H38      H      0.802500000000     0.065200000000     0.564020000000     0.0407223  
H39      H      0.689520000000     0.065400000000     0.563670000000     0.0408264  
H40      H      0.689520000000     0.923600000000     0.423920000000     0.0419789  
H41      H      0.065820000000     0.801810000000     0.427070000000     0.0419523  
H42      H      0.925270000000     0.802960000000     0.568110000000     0.0421427  
H43      H      0.923660000000     0.689690000000     0.567390000000     0.0418213  
H44      H      0.066240000000     0.688740000000     0.428420000000     0.0408983  
H45      H      0.067110000000     0.301780000000     0.423380000000     0.041519   
H46      H      0.928310000000     0.303070000000     0.566110000000     0.0405073  
H47      H      0.928600000000     0.189960000000     0.567560000000     0.0403763  
H48      H      0.065240000000     0.188470000000     0.422760000000     0.0406391  
Ni1      Ni     0.997600000000     0.995470000000     0.441280000000     0.993994   
Ni2      Ni     0.994670000000     0.996220000000     0.551530000000     0.9955     
Ni3      Ni     0.051470000000     0.496610000000     0.494370000000     0.996524   
Ni4      Ni     0.941250000000     0.494970000000     0.498160000000     0.995405   
Ni5      Ni     0.494960000000     0.941380000000     0.495730000000     0.994043   
Ni6      Ni     0.497170000000     0.051610000000     0.496930000000     0.997651   
Ni7      Ni     0.440710000000     0.995160000000     0.995610000000     0.996039   
Ni8      Ni     0.550940000000     0.997360000000     0.996810000000     0.991574   
Ni9      Ni     0.995700000000     0.440840000000     0.998160000000     0.9939     
Ni10     Ni     0.997350000000     0.551060000000     0.994360000000     0.99465    
Ni11     Ni     0.496090000000     0.497660000000     0.941000000000     0.995861   
Ni12     Ni     0.496840000000     0.494720000000     0.051250000000     0.995677   
O1       O      0.999730000000     0.907220000000     0.445710000000    -0.433826   
O2       O      0.996180000000     0.083800000000     0.444240000000    -0.433161   
O3       O      0.085610000000     0.997970000000     0.446920000000    -0.434536   
O4       O      0.909000000000     0.993120000000     0.443060000000    -0.431831   
O5       O      0.906710000000     0.998090000000     0.545890000000    -0.435484   
O6       O      0.083220000000     0.994390000000     0.549800000000    -0.432027   
O7       O      0.995960000000     0.084490000000     0.547220000000    -0.433268   
O8       O      0.992710000000     0.907890000000     0.548430000000    -0.43387    
O9       O      0.050410000000     0.495110000000     0.582980000000    -0.431433   
O10      O      0.045200000000     0.498900000000     0.406400000000    -0.434516   
O11      O      0.046950000000     0.584670000000     0.495760000000    -0.43483    
O12      O      0.048620000000     0.408080000000     0.492370000000    -0.431588   
O13      O      0.945760000000     0.406920000000     0.496820000000    -0.435055   
O14      O      0.944100000000     0.583490000000     0.500130000000    -0.432221   
O15      O      0.942330000000     0.496450000000     0.409530000000    -0.431947   
O16      O      0.947530000000     0.492730000000     0.586130000000    -0.43454    
O17      O      0.491390000000     0.946130000000     0.407520000000    -0.433474   
O18      O      0.497780000000     0.944000000000     0.584040000000    -0.433373   
O19      O      0.406940000000     0.946390000000     0.499550000000    -0.434434   
O20      O      0.583520000000     0.943800000000     0.492070000000    -0.431382   
O21      O      0.585170000000     0.046600000000     0.497410000000    -0.434974   
O22      O      0.408630000000     0.049270000000     0.496430000000    -0.431971   
O23      O      0.497370000000     0.046960000000     0.585210000000    -0.433038   
O24      O      0.497690000000     0.048880000000     0.408550000000    -0.433369   
O25      O      0.443050000000     0.083690000000     0.996110000000    -0.432164   
O26      O      0.445720000000     0.907160000000     0.995130000000    -0.435347   
O27      O      0.443440000000     0.994640000000     0.083980000000    -0.433173   
O28      O      0.445360000000     0.994950000000     0.907330000000    -0.433654   
O29      O      0.548330000000     0.994540000000     0.908490000000    -0.433357   
O30      O      0.546190000000     0.000930000000     0.085020000000    -0.431795   
O31      O      0.548510000000     0.908800000000     0.000470000000    -0.430055   
O32      O      0.545940000000     0.085380000000     0.992980000000    -0.43395    
O33      O      0.997190000000     0.441900000000     0.909540000000    -0.431778   
O34      O      0.993420000000     0.447120000000     0.086120000000    -0.434359   
O35      O      0.907640000000     0.445370000000     0.996770000000    -0.435312   
O36      O      0.084230000000     0.443700000000     0.000150000000    -0.430296   
O37      O      0.085400000000     0.546550000000     0.995700000000    -0.43469    
O38      O      0.908820000000     0.548220000000     0.992400000000    -0.432365   
O39      O      0.995870000000     0.550000000000     0.082990000000    -0.431516   
O40      O      0.999590000000     0.544780000000     0.906390000000    -0.434781   
O41      O      0.497930000000     0.409110000000     0.942720000000    -0.432092   
O42      O      0.494220000000     0.585620000000     0.946640000000    -0.435195   
O43      O      0.584420000000     0.499620000000     0.944100000000    -0.433538   
O44      O      0.407830000000     0.496360000000     0.945310000000    -0.433523   
O45      O      0.408510000000     0.496140000000     0.048290000000    -0.43284    
O46      O      0.585090000000     0.492600000000     0.046820000000    -0.433041   
O47      O      0.499190000000     0.583320000000     0.049470000000    -0.431083   
O48      O      0.494340000000     0.406710000000     0.045610000000    -0.434016   


