data_structure

_audit_creation_method RASPA-1.0
_audit_creation_date 2023-5-22
_audit_author_name 'Poobodin Mano'

_cell_length_a    30.4099
_cell_length_b    30.4093
_cell_length_c    30.3557
_cell_angle_alpha 90
_cell_angle_beta  89.997
_cell_angle_gamma 90
_cell_volume      28071.2

_symmetry_cell_setting          triclinic
_symmetry_space_group_name_Hall 'P 1'
_symmetry_space_group_name_H-M  'P 1'
_symmetry_Int_Tables_number     1

_symmetry_equiv_pos_as_xyz 'x,y,z'

loop_
_atom_site_label
_atom_site_type_symbol
_atom_site_fract_x
_atom_site_fract_y
_atom_site_fract_z
_atom_site_charge
C1       C      0.986460000000     0.987040000000     0.571200000000     0.386552   
C2       C      0.986460000000     0.985520000000     0.403370000000     0.38653    
C3       C      0.986470000000     0.070050000000     0.486600000000     0.386517   
C4       C      0.986400000000     0.902500000000     0.487940000000     0.386554   
C5       C      0.986450000000     0.486060000000     0.570530000000     0.386479   
C6       C      0.986450000000     0.486500000000     0.402690000000     0.386688   
C7       C      0.986430000000     0.570060000000     0.486880000000     0.386523   
C8       C      0.986490000000     0.402500000000     0.486360000000     0.386318   
C9       C      0.486080000000     0.987040000000     0.403670000000     0.386915   
C10      C      0.486080000000     0.985520000000     0.571500000000     0.386747   
C11      C      0.486130000000     0.070060000000     0.488240000000     0.386678   
C12      C      0.486080000000     0.902510000000     0.486910000000     0.386437   
C13      C      0.486100000000     0.486500000000     0.570960000000     0.38659    
C14      C      0.486090000000     0.486070000000     0.403120000000     0.386765   
C15      C      0.486110000000     0.402510000000     0.487310000000     0.3865     
C16      C      0.486060000000     0.570060000000     0.486800000000     0.386434   
C17      C      0.986310000000     0.987170000000     0.903380000000     0.386541   
C18      C      0.986300000000     0.985400000000     0.071210000000     0.386506   
C19      C      0.902490000000     0.986280000000     0.987300000000     0.386408   
C20      C      0.070040000000     0.986280000000     0.987300000000     0.386399   
C21      C      0.986300000000     0.486190000000     0.902680000000     0.386496   
C22      C      0.986290000000     0.486370000000     0.070530000000     0.386549   
C23      C      0.902500000000     0.486260000000     0.986610000000     0.386384   
C24      C      0.070060000000     0.486310000000     0.986610000000     0.386665   
C25      C      0.486220000000     0.987170000000     0.071500000000     0.386528   
C26      C      0.486230000000     0.985400000000     0.903670000000     0.386504   
C27      C      0.570040000000     0.986280000000     0.987580000000     0.386274   
C28      C      0.402480000000     0.986280000000     0.987590000000     0.386264   
C29      C      0.486260000000     0.486370000000     0.903120000000     0.386654   
C30      C      0.486260000000     0.486200000000     0.070960000000     0.386647   
C31      C      0.402500000000     0.486310000000     0.987030000000     0.38673    
C32      C      0.570050000000     0.486260000000     0.987030000000     0.386656   
C33      C      0.688110000000     0.448390000000     0.974590000000    -0.0681858  
C34      C      0.711770000000     0.486240000000     0.986850000000     0.0238764  
C35      C      0.688150000000     0.524100000000     0.999180000000    -0.0682378  
C36      C      0.642190000000     0.524190000000     0.998950000000     0.0285962  
C37      C      0.618700000000     0.486250000000     0.986980000000    -0.114853   
C38      C      0.642150000000     0.448300000000     0.974950000000     0.0286284  
C39      C      0.760790000000     0.486240000000     0.986770000000     0.0238901  
C40      C      0.784450000000     0.448380000000     0.999030000000    -0.0682791  
C41      C      0.830400000000     0.448300000000     0.998670000000     0.0285897  
C42      C      0.853850000000     0.486250000000     0.986650000000    -0.114809   
C43      C      0.830370000000     0.524190000000     0.974680000000     0.028645   
C44      C      0.784410000000     0.524100000000     0.974440000000    -0.0682123  
C45      C      0.188150000000     0.448460000000     0.974450000000    -0.0682074  
C46      C      0.211770000000     0.486320000000     0.986770000000     0.0238796  
C47      C      0.188110000000     0.524190000000     0.999030000000    -0.068288   
C48      C      0.142150000000     0.524270000000     0.998670000000     0.0286275  
C49      C      0.118710000000     0.486320000000     0.986650000000    -0.114866   
C50      C      0.142190000000     0.448370000000     0.974690000000     0.0286734  
C51      C      0.260790000000     0.486320000000     0.986850000000     0.0239495  
C52      C      0.284400000000     0.448460000000     0.999180000000    -0.0683454  
C53      C      0.330360000000     0.448370000000     0.998950000000     0.0286558  
C54      C      0.353850000000     0.486320000000     0.986990000000    -0.114944   
C55      C      0.330400000000     0.524260000000     0.974970000000     0.0287848  
C56      C      0.284450000000     0.524190000000     0.974600000000    -0.0683015  
C57      C      0.784380000000     0.948470000000     0.974970000000    -0.0682128  
C58      C      0.760770000000     0.986280000000     0.987430000000     0.0237346  
C59      C      0.784410000000     0.024100000000     0.999830000000    -0.0681527  
C60      C      0.830360000000     0.024180000000     0.999510000000     0.0284673  
C61      C      0.853820000000     0.986280000000     0.987330000000    -0.114866   
C62      C      0.830340000000     0.948390000000     0.975200000000     0.0284589  
C63      C      0.711760000000     0.986280000000     0.987470000000     0.0237009  
C64      C      0.688120000000     0.024100000000     0.975070000000    -0.0680824  
C65      C      0.642170000000     0.024180000000     0.975380000000     0.0285317  
C66      C      0.618700000000     0.986290000000     0.987560000000    -0.114854   
C67      C      0.642190000000     0.948390000000     0.999690000000     0.0283643  
C68      C      0.688140000000     0.948470000000     0.999920000000    -0.0682207  
C69      C      0.188100000000     0.024150000000     0.999690000000    -0.0682271  
C70      C      0.211750000000     0.986280000000     0.987430000000     0.0238355  
C71      C      0.188130000000     0.948420000000     0.975110000000    -0.0682783  
C72      C      0.142170000000     0.948340000000     0.975370000000     0.0287309  
C73      C      0.118690000000     0.986280000000     0.987330000000    -0.114932   
C74      C      0.142150000000     0.024230000000     0.999340000000     0.0287217  
C75      C      0.260770000000     0.986280000000     0.987480000000     0.0238064  
C76      C      0.284420000000     0.024150000000     0.975210000000    -0.0681658  
C77      C      0.330380000000     0.024230000000     0.975550000000     0.028799   
C78      C      0.353830000000     0.986290000000     0.987560000000    -0.114917   
C79      C      0.330360000000     0.948340000000     0.999530000000     0.0286054  
C80      C      0.284400000000     0.948420000000     0.999790000000    -0.0682973  
C81      C      0.523530000000     0.499730000000     0.284870000000    -0.0687575  
C82      C      0.486150000000     0.486030000000     0.261430000000     0.0240222  
C83      C      0.448760000000     0.472300000000     0.284840000000    -0.0687237  
C84      C      0.448600000000     0.472650000000     0.330890000000     0.0289037  
C85      C      0.486120000000     0.486020000000     0.354400000000    -0.115024   
C86      C      0.523650000000     0.499370000000     0.330910000000     0.028975   
C87      C      0.486170000000     0.486070000000     0.212650000000     0.0240665  
C88      C      0.499890000000     0.523470000000     0.189270000000    -0.0687516  
C89      C      0.499570000000     0.523660000000     0.143230000000     0.0288978  
C90      C      0.486230000000     0.486150000000     0.119680000000    -0.114936   
C91      C      0.472850000000     0.448600000000     0.143150000000     0.0289314  
C92      C      0.472460000000     0.448700000000     0.189190000000    -0.0687962  
C93      C      0.448760000000     0.500260000000     0.689250000000    -0.0687217  
C94      C      0.486150000000     0.486540000000     0.712650000000     0.0240356  
C95      C      0.523540000000     0.472850000000     0.689220000000    -0.0687529  
C96      C      0.523660000000     0.473200000000     0.643170000000     0.0288559  
C97      C      0.486120000000     0.486550000000     0.619690000000    -0.114849   
C98      C      0.448600000000     0.499910000000     0.643200000000     0.0288525  
C99      C      0.486170000000     0.486500000000     0.761430000000     0.0240512  
C100     C      0.472480000000     0.523870000000     0.784890000000    -0.0687437  
C101     C      0.472860000000     0.523970000000     0.830940000000     0.0288904  
C102     C      0.486240000000     0.486420000000     0.854400000000    -0.114943   
C103     C      0.499580000000     0.448910000000     0.830850000000     0.0289135  
C104     C      0.499890000000     0.449090000000     0.784810000000    -0.0687846  
C105     C      0.523390000000     0.001480000000     0.285430000000    -0.0687239  
C106     C      0.485910000000     0.988080000000     0.261980000000     0.0240115  
C107     C      0.448460000000     0.974480000000     0.285370000000    -0.0688535  
C108     C      0.448380000000     0.974540000000     0.331400000000     0.0290097  
C109     C      0.486020000000     0.987490000000     0.354950000000    -0.115174   
C110     C      0.523580000000     0.000840000000     0.331480000000     0.0290522  
C111     C      0.485950000000     0.987980000000     0.213200000000     0.0238849  
C112     C      0.499990000000     0.025160000000     0.189630000000    -0.0685646  
C113     C      0.499700000000     0.025090000000     0.143560000000     0.0288865  
C114     C      0.486080000000     0.987560000000     0.120230000000    -0.114966   
C115     C      0.472350000000     0.950270000000     0.143900000000     0.0288292  
C116     C      0.471950000000     0.950610000000     0.189920000000    -0.0687933  
C117     C      0.448470000000     0.998090000000     0.689810000000    -0.0689095  
C118     C      0.485910000000     0.984490000000     0.713200000000     0.0240815  
C119     C      0.523390000000     0.971080000000     0.689740000000    -0.0687603  
C120     C      0.523580000000     0.971720000000     0.643690000000     0.0288463  
C121     C      0.486020000000     0.985080000000     0.620230000000    -0.114932   
C122     C      0.448390000000     0.998040000000     0.643770000000     0.0288494  
C123     C      0.485950000000     0.984590000000     0.761980000000     0.023892   
C124     C      0.471970000000     0.021960000000     0.785250000000    -0.0687415  
C125     C      0.472370000000     0.022300000000     0.831280000000     0.0289498  
C126     C      0.486080000000     0.985010000000     0.854950000000    -0.115043   
C127     C      0.499700000000     0.947470000000     0.831610000000     0.0288155  
C128     C      0.500000000000     0.947410000000     0.785550000000    -0.0686651  
C129     C      0.448210000000     0.784470000000     0.474230000000    -0.0682422  
C130     C      0.486070000000     0.760800000000     0.486490000000     0.0239099  
C131     C      0.523930000000     0.784400000000     0.498820000000    -0.0682178  
C132     C      0.524030000000     0.830350000000     0.498610000000     0.0286794  
C133     C      0.486090000000     0.853860000000     0.486680000000    -0.114823   
C134     C      0.448140000000     0.830430000000     0.474620000000     0.0286627  
C135     C      0.486040000000     0.711780000000     0.486490000000     0.0238616  
C136     C      0.448170000000     0.688160000000     0.498810000000    -0.068178   
C137     C      0.448090000000     0.642200000000     0.498600000000     0.0286302  
C138     C      0.486040000000     0.618720000000     0.486660000000    -0.114738   
C139     C      0.523980000000     0.642160000000     0.474610000000     0.0286116  
C140     C      0.523890000000     0.688120000000     0.474220000000    -0.0681808  
C141     C      0.448310000000     0.188150000000     0.500610000000    -0.0682106  
C142     C      0.486160000000     0.211770000000     0.488250000000     0.0238828  
C143     C      0.524030000000     0.188120000000     0.476010000000    -0.0681907  
C144     C      0.524120000000     0.142170000000     0.476370000000     0.0286789  
C145     C      0.486170000000     0.118710000000     0.488380000000    -0.114878   
C146     C      0.448230000000     0.142190000000     0.500370000000     0.0286982  
C147     C      0.486130000000     0.260800000000     0.488060000000     0.0239261  
C148     C      0.448270000000     0.284360000000     0.475640000000    -0.0682312  
C149     C      0.448180000000     0.330320000000     0.475690000000     0.0286847  
C150     C      0.486120000000     0.353860000000     0.487550000000    -0.114819   
C151     C      0.524070000000     0.330460000000     0.499680000000     0.0286447  
C152     C      0.523990000000     0.284500000000     0.500230000000    -0.068249   
C153     C      0.972660000000     0.449090000000     0.188840000000    -0.0686348  
C154     C      0.986370000000     0.486500000000     0.212220000000     0.0238102  
C155     C      0.000060000000     0.523870000000     0.188750000000    -0.0683487  
C156     C      0.999680000000     0.523970000000     0.142710000000     0.0285249  
C157     C      0.986310000000     0.486420000000     0.119250000000    -0.114799   
C158     C      0.972980000000     0.448910000000     0.142790000000     0.0287802  
C159     C      0.986390000000     0.486550000000     0.260990000000     0.0239888  
C160     C      0.949010000000     0.472830000000     0.284430000000    -0.068777   
C161     C      0.948890000000     0.473190000000     0.330480000000     0.028903   
C162     C      0.986430000000     0.486550000000     0.353960000000    -0.115028   
C163     C      0.023940000000     0.499930000000     0.330450000000     0.0289941  
C164     C      0.023780000000     0.500280000000     0.284400000000    -0.0686669  
C165     C      0.949010000000     0.499710000000     0.688780000000    -0.068832   
C166     C      0.986400000000     0.486020000000     0.712220000000     0.0240254  
C167     C      0.023800000000     0.472310000000     0.688810000000    -0.0687399  
C168     C      0.023950000000     0.472660000000     0.642760000000     0.0290408  
C169     C      0.986430000000     0.486010000000     0.619250000000    -0.115065   
C170     C      0.948890000000     0.499350000000     0.642740000000     0.0289632  
C171     C      0.986390000000     0.486060000000     0.760990000000     0.0238013  
C172     C      0.972650000000     0.523470000000     0.784370000000    -0.0686574  
C173     C      0.972970000000     0.523650000000     0.830420000000     0.0287561  
C174     C      0.986320000000     0.486140000000     0.853960000000    -0.114789   
C175     C      0.999710000000     0.448600000000     0.830500000000     0.0285148  
C176     C      0.000090000000     0.448700000000     0.784460000000    -0.0683576  
C177     C      0.024070000000     0.998070000000     0.285060000000    -0.0688128  
C178     C      0.986620000000     0.984480000000     0.261680000000     0.0240265  
C179     C      0.949140000000     0.971080000000     0.285140000000    -0.0688152  
C180     C      0.948950000000     0.971730000000     0.331190000000     0.0289049  
C181     C      0.986510000000     0.985070000000     0.354650000000    -0.115021   
C182     C      0.024160000000     0.998020000000     0.331100000000     0.0288907  
C183     C      0.986580000000     0.984580000000     0.212900000000     0.0237582  
C184     C      0.000570000000     0.021950000000     0.189620000000    -0.0685654  
C185     C      0.000170000000     0.022300000000     0.143600000000     0.028999   
C186     C      0.986450000000     0.985000000000     0.119930000000    -0.115121   
C187     C      0.972820000000     0.947470000000     0.143270000000     0.028827   
C188     C      0.972530000000     0.947410000000     0.189330000000    -0.0686369  
C189     C      0.972540000000     0.025160000000     0.785250000000    -0.0685789  
C190     C      0.986590000000     0.987980000000     0.761680000000     0.0238285  
C191     C      0.000570000000     0.950610000000     0.784950000000    -0.0687208  
C192     C      0.000170000000     0.950260000000     0.830980000000     0.0289192  
C193     C      0.986460000000     0.987560000000     0.854650000000    -0.115071   
C194     C      0.972840000000     0.025100000000     0.831310000000     0.0288805  
C195     C      0.986620000000     0.988080000000     0.712900000000     0.0238638  
C196     C      0.949150000000     0.001490000000     0.689440000000    -0.0686774  
C197     C      0.948960000000     0.000850000000     0.643390000000     0.028984   
C198     C      0.986510000000     0.987490000000     0.619930000000    -0.115081   
C199     C      0.024150000000     0.974520000000     0.643470000000     0.0289761  
C200     C      0.024070000000     0.974470000000     0.689510000000    -0.0686816  
C201     C      0.024220000000     0.784410000000     0.500250000000    -0.068141   
C202     C      0.986370000000     0.760790000000     0.487880000000     0.0238079  
C203     C      0.948500000000     0.784450000000     0.475660000000    -0.0682202  
C204     C      0.948410000000     0.830400000000     0.476050000000     0.0287009  
C205     C      0.986360000000     0.853850000000     0.488060000000    -0.115002   
C206     C      0.024300000000     0.830370000000     0.500040000000     0.0287947  
C207     C      0.986400000000     0.711770000000     0.487670000000     0.0237841  
C208     C      0.024260000000     0.688210000000     0.475240000000    -0.0681057  
C209     C      0.024350000000     0.642250000000     0.475270000000     0.0287936  
C210     C      0.986410000000     0.618710000000     0.487130000000    -0.114982   
C211     C      0.948460000000     0.642100000000     0.499260000000     0.0286836  
C212     C      0.948540000000     0.688050000000     0.499830000000    -0.0681944  
C213     C      0.024380000000     0.284410000000     0.498400000000    -0.0680829  
C214     C      0.986520000000     0.260790000000     0.486090000000     0.0238027  
C215     C      0.948660000000     0.284440000000     0.473820000000    -0.0682078  
C216     C      0.948570000000     0.330400000000     0.474190000000     0.0286478  
C217     C      0.986510000000     0.353850000000     0.486230000000    -0.114875   
C218     C      0.024470000000     0.330370000000     0.498170000000     0.0287119  
C219     C      0.986490000000     0.211770000000     0.486120000000     0.0237829  
C220     C      0.024340000000     0.188090000000     0.473860000000    -0.0680998  
C221     C      0.024410000000     0.142130000000     0.474280000000     0.0287425  
C222     C      0.986460000000     0.118710000000     0.486350000000    -0.114883   
C223     C      0.948520000000     0.142220000000     0.498280000000     0.0286629  
C224     C      0.948620000000     0.188170000000     0.498460000000    -0.0681794  
H1       H      0.705100000000     0.553630000000     0.009630000000     0.0470057  
H2       H      0.625080000000     0.553870000000     0.008740000000     0.0340201  
H3       H      0.625010000000     0.418640000000     0.965200000000     0.0339528  
H4       H      0.705020000000     0.418860000000     0.964090000000     0.046933   
H5       H      0.767530000000     0.418860000000     0.009530000000     0.0470295  
H6       H      0.847550000000     0.418640000000     0.008430000000     0.0340207  
H7       H      0.847480000000     0.553860000000     0.964890000000     0.0339417  
H8       H      0.767460000000     0.553620000000     0.963990000000     0.0469455  
H9       H      0.205020000000     0.553710000000     0.009520000000     0.0470517  
H10      H      0.125010000000     0.553940000000     0.008410000000     0.0340262  
H11      H      0.125080000000     0.418700000000     0.964900000000     0.0339512  
H12      H      0.205100000000     0.418940000000     0.964000000000     0.0469579  
H13      H      0.267460000000     0.418940000000     0.009620000000     0.0470709  
H14      H      0.347480000000     0.418700000000     0.008740000000     0.0340099  
H15      H      0.347550000000     0.553940000000     0.965220000000     0.0339138  
H16      H      0.267530000000     0.553710000000     0.964110000000     0.0469791  
H17      H      0.767470000000     0.053590000000     0.010400000000     0.0470337  
H18      H      0.847490000000     0.053820000000     0.009370000000     0.0344311  
H19      H      0.847450000000     0.918750000000     0.965310000000     0.0343429  
H20      H      0.767430000000     0.918980000000     0.964440000000     0.0469664  
H21      H      0.705060000000     0.053590000000     0.964500000000     0.0469493  
H22      H      0.625050000000     0.053820000000     0.965520000000     0.0343598  
H23      H      0.625080000000     0.918750000000     0.009580000000     0.0344349  
H24      H      0.705100000000     0.918980000000     0.010460000000     0.0470244  
H25      H      0.205070000000     0.918900000000     0.964660000000     0.0469694  
H26      H      0.125050000000     0.918660000000     0.965590000000     0.0339087  
H27      H      0.125010000000     0.053900000000     0.009090000000     0.0339994  
H28      H      0.205020000000     0.053670000000     0.010180000000     0.0470422  
H29      H      0.267500000000     0.053670000000     0.964730000000     0.0469632  
H30      H      0.347520000000     0.053910000000     0.965800000000     0.0339075  
H31      H      0.347480000000     0.918670000000     0.009310000000     0.0339834  
H32      H      0.267460000000     0.918900000000     0.010240000000     0.0470391  
H33      H      0.419430000000     0.461840000000     0.267490000000     0.0479401  
H34      H      0.419220000000     0.462050000000     0.348050000000     0.0338888  
H35      H      0.553020000000     0.509990000000     0.348080000000     0.0338786  
H36      H      0.552870000000     0.510210000000     0.267540000000     0.0479313  
H37      H      0.510350000000     0.552790000000     0.206640000000     0.0479269  
H38      H      0.510200000000     0.553040000000     0.126090000000     0.0338946  
H39      H      0.462250000000     0.419240000000     0.125940000000     0.0339098  
H40      H      0.461980000000     0.419360000000     0.206490000000     0.0479848  
H41      H      0.552870000000     0.462370000000     0.706540000000     0.0479477  
H42      H      0.553020000000     0.462590000000     0.625990000000     0.0339131  
H43      H      0.419220000000     0.510510000000     0.626050000000     0.0338982  
H44      H      0.419430000000     0.510720000000     0.706600000000     0.0479382  
H45      H      0.462000000000     0.553220000000     0.767590000000     0.0479513  
H46      H      0.462270000000     0.553330000000     0.848140000000     0.0339005  
H47      H      0.510190000000     0.419520000000     0.847990000000     0.0338812  
H48      H      0.510350000000     0.419780000000     0.767440000000     0.0479462  
H49      H      0.419060000000     0.964250000000     0.268010000000     0.0479396  
H50      H      0.418970000000     0.963970000000     0.348530000000     0.0339088  
H51      H      0.553040000000     0.011150000000     0.348680000000     0.0338832  
H52      H      0.552770000000     0.011840000000     0.268120000000     0.0479875  
H53      H      0.510690000000     0.054470000000     0.206850000000     0.0479994  
H54      H      0.510580000000     0.054280000000     0.126260000000     0.0341903  
H55      H      0.461530000000     0.920890000000     0.126870000000     0.0339353  
H56      H      0.461240000000     0.921430000000     0.207360000000     0.0479     
H57      H      0.552770000000     0.960710000000     0.707050000000     0.0479459  
H58      H      0.553030000000     0.961400000000     0.626480000000     0.0338899  
H59      H      0.418980000000     0.008620000000     0.626650000000     0.0340357  
H60      H      0.419070000000     0.008330000000     0.707170000000     0.048028   
H61      H      0.461260000000     0.051140000000     0.767820000000     0.0479168  
H62      H      0.461550000000     0.051680000000     0.848300000000     0.0339124  
H63      H      0.510580000000     0.918280000000     0.848920000000     0.034177   
H64      H      0.510690000000     0.918100000000     0.768320000000     0.0479906  
H65      H      0.553450000000     0.767440000000     0.509270000000     0.0469598  
H66      H      0.553700000000     0.847450000000     0.508440000000     0.0339694  
H67      H      0.418470000000     0.847590000000     0.464900000000     0.0339299  
H68      H      0.418690000000     0.767560000000     0.463740000000     0.0469763  
H69      H      0.418650000000     0.705110000000     0.509260000000     0.0469622  
H70      H      0.418420000000     0.625090000000     0.508410000000     0.0339715  
H71      H      0.553650000000     0.625010000000     0.464880000000     0.0339601  
H72      H      0.553420000000     0.705030000000     0.463730000000     0.0469416  
H73      H      0.553550000000     0.205040000000     0.465490000000     0.0469573  
H74      H      0.553780000000     0.125030000000     0.466600000000     0.0339884  
H75      H      0.418550000000     0.125070000000     0.510140000000     0.0339389  
H76      H      0.418780000000     0.205100000000     0.511040000000     0.0469627  
H77      H      0.418750000000     0.267370000000     0.465260000000     0.0469846  
H78      H      0.418500000000     0.347390000000     0.465840000000     0.0339582  
H79      H      0.553730000000     0.347640000000     0.509360000000     0.033958   
H80      H      0.553510000000     0.267630000000     0.510780000000     0.0469763  
H81      H      0.010530000000     0.553220000000     0.206060000000     0.0478867  
H82      H      0.010270000000     0.553330000000     0.125510000000     0.0340823  
H83      H      0.962370000000     0.419520000000     0.125660000000     0.0339049  
H84      H      0.962210000000     0.419770000000     0.206210000000     0.0478936  
H85      H      0.919680000000     0.462350000000     0.267110000000     0.0479538  
H86      H      0.919530000000     0.462570000000     0.347660000000     0.0338982  
H87      H      0.053310000000     0.510530000000     0.347610000000     0.0338866  
H88      H      0.053100000000     0.510750000000     0.267050000000     0.0479576  
H89      H      0.053120000000     0.461860000000     0.706150000000     0.0479857  
H90      H      0.053330000000     0.462070000000     0.625600000000     0.0338716  
H91      H      0.919520000000     0.509950000000     0.625570000000     0.0338785  
H92      H      0.919680000000     0.510170000000     0.706110000000     0.0479685  
H93      H      0.962190000000     0.552780000000     0.767010000000     0.0479075  
H94      H      0.962350000000     0.553030000000     0.847560000000     0.0339028  
H95      H      0.010310000000     0.419250000000     0.847700000000     0.0340731  
H96      H      0.010580000000     0.419360000000     0.767150000000     0.0478903  
H97      H      0.919760000000     0.960730000000     0.267830000000     0.0479671  
H98      H      0.919490000000     0.961420000000     0.348390000000     0.0338709  
H99      H      0.053570000000     0.008580000000     0.348220000000     0.0340389  
H100     H      0.053470000000     0.008300000000     0.267700000000     0.0480311  
H101     H      0.011290000000     0.051130000000     0.207060000000     0.0478948  
H102     H      0.010990000000     0.051670000000     0.126570000000     0.0339471  
H103     H      0.961940000000     0.918280000000     0.125960000000     0.0341763  
H104     H      0.961830000000     0.918100000000     0.206560000000     0.047973   
H105     H      0.011280000000     0.921430000000     0.767520000000     0.0479137  
H106     H      0.010990000000     0.920880000000     0.848000000000     0.0339334  
H107     H      0.961960000000     0.054290000000     0.848620000000     0.0341693  
H108     H      0.961850000000     0.054470000000     0.768020000000     0.0479798  
H109     H      0.919780000000     0.011870000000     0.706750000000     0.0479701  
H110     H      0.919510000000     0.011170000000     0.626190000000     0.0339029  
H111     H      0.053560000000     0.963950000000     0.626340000000     0.033935   
H112     H      0.053470000000     0.964230000000     0.706860000000     0.0479147  
H113     H      0.918980000000     0.767540000000     0.465140000000     0.0469584  
H114     H      0.918750000000     0.847540000000     0.466290000000     0.0339586  
H115     H      0.053970000000     0.847490000000     0.509810000000     0.0339147  
H116     H      0.053740000000     0.767450000000     0.510670000000     0.046967   
H117     H      0.053780000000     0.705210000000     0.464860000000     0.0469616  
H118     H      0.054030000000     0.625180000000     0.465410000000     0.0339439  
H119     H      0.918800000000     0.624910000000     0.508940000000     0.0339382  
H120     H      0.919010000000     0.704920000000     0.510400000000     0.0469298  
H121     H      0.919140000000     0.267520000000     0.463330000000     0.0469549  
H122     H      0.918900000000     0.347540000000     0.464450000000     0.0339476  
H123     H      0.054130000000     0.347490000000     0.507970000000     0.0339743  
H124     H      0.053900000000     0.267460000000     0.508850000000     0.046962   
H125     H      0.053870000000     0.204990000000     0.463360000000     0.0469563  
H126     H      0.054080000000     0.124960000000     0.464570000000     0.0339413  
H127     H      0.918850000000     0.125120000000     0.508110000000     0.0339883  
H128     H      0.919100000000     0.205130000000     0.508910000000     0.0469541  
Ni1      Ni     0.025700000000     0.986260000000     0.487280000000     0.995013   
Ni2      Ni     0.947180000000     0.986290000000     0.487290000000     0.99428    
Ni3      Ni     0.025710000000     0.486300000000     0.486600000000     0.994535   
Ni4      Ni     0.947200000000     0.486260000000     0.486610000000     0.994855   
Ni5      Ni     0.446840000000     0.986300000000     0.487590000000     0.994849   
Ni6      Ni     0.525350000000     0.986270000000     0.487580000000     0.99439    
Ni7      Ni     0.446830000000     0.486270000000     0.487050000000     0.994414   
Ni8      Ni     0.525340000000     0.486300000000     0.487040000000     0.994987   
Ni9      Ni     0.986270000000     0.947030000000     0.986800000000     0.994283   
Ni10     Ni     0.986270000000     0.025530000000     0.987780000000     0.99466    
Ni11     Ni     0.986290000000     0.447020000000     0.986650000000     0.994508   
Ni12     Ni     0.986270000000     0.525540000000     0.986570000000     0.994542   
Ni13     Ni     0.486260000000     0.947030000000     0.988080000000     0.994357   
Ni14     Ni     0.486260000000     0.025530000000     0.987100000000     0.994731   
Ni15     Ni     0.486260000000     0.447030000000     0.987000000000     0.994579   
Ni16     Ni     0.486280000000     0.525540000000     0.987080000000     0.994596   
O1       O      0.023100000000     0.986620000000     0.550360000000    -0.438291   
O2       O      0.023100000000     0.985910000000     0.424210000000    -0.438347   
O3       O      0.023110000000     0.049240000000     0.486680000000    -0.438121   
O4       O      0.023060000000     0.923280000000     0.487880000000    -0.438162   
O5       O      0.949760000000     0.923330000000     0.487730000000    -0.438322   
O6       O      0.949810000000     0.049260000000     0.486840000000    -0.438157   
O7       O      0.949790000000     0.985540000000     0.424190000000    -0.437942   
O8       O      0.949790000000     0.987050000000     0.550390000000    -0.43798    
O9       O      0.023110000000     0.485910000000     0.549700000000    -0.437892   
O10      O      0.023100000000     0.486680000000     0.423510000000    -0.43812    
O11      O      0.023080000000     0.549270000000     0.486730000000    -0.438222   
O12      O      0.023140000000     0.423320000000     0.486490000000    -0.438005   
O13      O      0.949830000000     0.423290000000     0.486360000000    -0.438228   
O14      O      0.949780000000     0.549240000000     0.486870000000    -0.438177   
O15      O      0.949800000000     0.486230000000     0.423530000000    -0.438297   
O16      O      0.949800000000     0.486300000000     0.549690000000    -0.438211   
O17      O      0.449440000000     0.986650000000     0.424510000000    -0.438431   
O18      O      0.449440000000     0.985950000000     0.550660000000    -0.438448   
O19      O      0.449470000000     0.049280000000     0.488180000000    -0.438166   
O20      O      0.449430000000     0.923320000000     0.486990000000    -0.438153   
O21      O      0.522740000000     0.923310000000     0.487130000000    -0.438229   
O22      O      0.522770000000     0.049240000000     0.488030000000    -0.438234   
O23      O      0.522740000000     0.985520000000     0.550680000000    -0.438056   
O24      O      0.522740000000     0.987020000000     0.424480000000    -0.438132   
O25      O      0.449440000000     0.486660000000     0.550140000000    -0.438083   
O26      O      0.449440000000     0.485890000000     0.423950000000    -0.4381     
O27      O      0.449450000000     0.423300000000     0.487170000000    -0.438217   
O28      O      0.449410000000     0.549250000000     0.486930000000    -0.438127   
O29      O      0.522720000000     0.549270000000     0.486800000000    -0.438265   
O30      O      0.522760000000     0.423320000000     0.487300000000    -0.438201   
O31      O      0.522740000000     0.486330000000     0.423960000000    -0.438294   
O32      O      0.522750000000     0.486260000000     0.550120000000    -0.438252   
O33      O      0.986980000000     0.950310000000     0.923810000000    -0.438847   
O34      O      0.985570000000     0.948960000000     0.049980000000    -0.437287   
O35      O      0.923300000000     0.949650000000     0.986160000000    -0.438244   
O36      O      0.049240000000     0.949630000000     0.987270000000    -0.438162   
O37      O      0.049240000000     0.022940000000     0.987320000000    -0.438069   
O38      O      0.923300000000     0.022910000000     0.988430000000    -0.43821    
O39      O      0.986970000000     0.022250000000     0.050770000000    -0.438789   
O40      O      0.985570000000     0.023600000000     0.924610000000    -0.437466   
O41      O      0.986510000000     0.449560000000     0.923550000000    -0.438073   
O42      O      0.986080000000     0.449690000000     0.049730000000    -0.438101   
O43      O      0.923320000000     0.449610000000     0.986710000000    -0.438184   
O44      O      0.049270000000     0.449650000000     0.986580000000    -0.438138   
O45      O      0.049250000000     0.522950000000     0.986640000000    -0.438204   
O46      O      0.923300000000     0.522920000000     0.986500000000    -0.438182   
O47      O      0.986490000000     0.523000000000     0.049660000000    -0.438123   
O48      O      0.986070000000     0.522870000000     0.923480000000    -0.438057   
O49      O      0.485550000000     0.950310000000     0.051070000000    -0.438777   
O50      O      0.486960000000     0.948960000000     0.924900000000    -0.43732    
O51      O      0.549230000000     0.949650000000     0.988720000000    -0.438234   
O52      O      0.423290000000     0.949630000000     0.987610000000    -0.438164   
O53      O      0.423290000000     0.022940000000     0.987560000000    -0.438042   
O54      O      0.549230000000     0.022920000000     0.986450000000    -0.438123   
O55      O      0.485550000000     0.022250000000     0.924110000000    -0.438797   
O56      O      0.486950000000     0.023600000000     0.050270000000    -0.437405   
O57      O      0.486470000000     0.449690000000     0.923910000000    -0.438095   
O58      O      0.486050000000     0.449560000000     0.050090000000    -0.438063   
O59      O      0.423290000000     0.449650000000     0.987060000000    -0.438307   
O60      O      0.549240000000     0.449620000000     0.986930000000    -0.438274   
O61      O      0.549260000000     0.522920000000     0.987140000000    -0.438217   
O62      O      0.423310000000     0.522950000000     0.987010000000    -0.438378   
O63      O      0.486490000000     0.522870000000     0.050170000000    -0.438135   
O64      O      0.486070000000     0.523000000000     0.923990000000    -0.438173   


