data_structure

_audit_creation_method RASPA-1.0
_audit_creation_date 2023-5-19
_audit_author_name 'Poobodin Mano'

_cell_length_a    30.3594
_cell_length_b    30.3595
_cell_length_c    30.3594
_cell_angle_alpha 89.997
_cell_angle_beta  89.997
_cell_angle_gamma 89.997
_cell_volume      27982.1

_symmetry_cell_setting          triclinic
_symmetry_space_group_name_Hall 'P 1'
_symmetry_space_group_name_H-M  'P 1'
_symmetry_Int_Tables_number     1

_symmetry_equiv_pos_as_xyz 'x,y,z'

loop_
_atom_site_label
_atom_site_type_symbol
_atom_site_fract_x
_atom_site_fract_y
_atom_site_fract_z
_atom_site_charge
C1       C      0.987090000000     0.903230000000     0.487140000000     0.386291   
C2       C      0.987140000000     0.071040000000     0.487100000000     0.386462   
C3       C      0.903210000000     0.987160000000     0.487090000000     0.386433   
C4       C      0.071030000000     0.987100000000     0.487140000000     0.386407   
C5       C      0.987000000000     0.487090000000     0.571000000000     0.386153   
C6       C      0.987010000000     0.487180000000     0.403190000000     0.386422   
C7       C      0.987000000000     0.571040000000     0.487130000000     0.386212   
C8       C      0.987020000000     0.403230000000     0.487050000000     0.386161   
C9       C      0.487080000000     0.987010000000     0.403140000000     0.386422   
C10      C      0.487160000000     0.987000000000     0.570950000000     0.386398   
C11      C      0.403210000000     0.986990000000     0.487090000000     0.386073   
C12      C      0.571030000000     0.987020000000     0.487000000000     0.386083   
C13      C      0.487140000000     0.070960000000     0.987030000000     0.38649    
C14      C      0.487140000000     0.903150000000     0.987050000000     0.386484   
C15      C      0.487120000000     0.987060000000     0.070950000000     0.386448   
C16      C      0.487160000000     0.987050000000     0.903140000000     0.38635    
C17      C      0.987070000000     0.487100000000     0.903190000000     0.386531   
C18      C      0.987070000000     0.487140000000     0.071000000000     0.386269   
C19      C      0.903160000000     0.487120000000     0.987100000000     0.386411   
C20      C      0.070980000000     0.487120000000     0.987090000000     0.386375   
C21      C      0.487080000000     0.403150000000     0.987050000000     0.386384   
C22      C      0.487070000000     0.570970000000     0.987050000000     0.386096   
C23      C      0.403160000000     0.487060000000     0.987050000000     0.386365   
C24      C      0.570980000000     0.487060000000     0.987060000000     0.386203   
C25      C      0.784900000000     0.449730000000     0.973140000000    -0.0687753  
C26      C      0.761460000000     0.487100000000     0.987070000000     0.0237733  
C27      C      0.784880000000     0.524480000000     0.001020000000    -0.0687266  
C28      C      0.830920000000     0.524620000000     0.000690000000     0.02862    
C29      C      0.854430000000     0.487110000000     0.987090000000    -0.114996   
C30      C      0.830940000000     0.449600000000     0.973480000000     0.0285699  
C31      C      0.712680000000     0.487090000000     0.987070000000     0.0237629  
C32      C      0.689260000000     0.473140000000     0.949700000000    -0.068749   
C33      C      0.643230000000     0.473460000000     0.949560000000     0.0285381  
C34      C      0.619710000000     0.487070000000     0.987060000000    -0.114922   
C35      C      0.643210000000     0.500690000000     0.024560000000     0.0286206  
C36      C      0.689240000000     0.501040000000     0.024430000000    -0.0687011  
C37      C      0.189250000000     0.449740000000     0.001030000000    -0.068695   
C38      C      0.212680000000     0.487100000000     0.987060000000     0.0237651  
C39      C      0.189260000000     0.524470000000     0.973110000000    -0.0687393  
C40      C      0.143220000000     0.524620000000     0.973450000000     0.0285014  
C41      C      0.119710000000     0.487110000000     0.987080000000    -0.114953   
C42      C      0.143210000000     0.449610000000     0.000700000000     0.028636   
C43      C      0.261460000000     0.487090000000     0.987060000000     0.023798   
C44      C      0.284890000000     0.473140000000     0.024430000000    -0.0687362  
C45      C      0.330930000000     0.473470000000     0.024560000000     0.0286642  
C46      C      0.354440000000     0.487070000000     0.987050000000    -0.115072   
C47      C      0.330930000000     0.500690000000     0.949550000000     0.0286233  
C48      C      0.284890000000     0.501030000000     0.949680000000    -0.0688276  
C49      C      0.449750000000     0.784880000000     0.001000000000    -0.0686938  
C50      C      0.487120000000     0.761450000000     0.987060000000     0.0237603  
C51      C      0.524500000000     0.784870000000     0.973120000000    -0.0687632  
C52      C      0.524640000000     0.830910000000     0.973460000000     0.028556   
C53      C      0.487130000000     0.854420000000     0.987060000000    -0.115002   
C54      C      0.449620000000     0.830920000000     0.000670000000     0.0286275  
C55      C      0.487110000000     0.712660000000     0.987060000000     0.023811   
C56      C      0.473150000000     0.689240000000     0.024430000000    -0.0687505  
C57      C      0.473470000000     0.643200000000     0.024560000000     0.0286314  
C58      C      0.487080000000     0.619700000000     0.987060000000    -0.114915   
C59      C      0.500720000000     0.643200000000     0.949560000000     0.0285443  
C60      C      0.501060000000     0.689240000000     0.949690000000    -0.0688048  
C61      C      0.473170000000     0.284880000000     0.949670000000    -0.0687286  
C62      C      0.487110000000     0.261450000000     0.987030000000     0.0237764  
C63      C      0.501050000000     0.284870000000     0.024410000000    -0.0686956  
C64      C      0.500700000000     0.330910000000     0.024550000000     0.0285886  
C65      C      0.487090000000     0.354420000000     0.987040000000    -0.114949   
C66      C      0.473490000000     0.330920000000     0.949530000000     0.0285234  
C67      C      0.487120000000     0.212670000000     0.987030000000     0.0237522  
C68      C      0.449760000000     0.189240000000     0.973070000000    -0.0687498  
C69      C      0.449630000000     0.143200000000     0.973400000000     0.0285387  
C70      C      0.487130000000     0.119690000000     0.987030000000    -0.114975   
C71      C      0.524630000000     0.143200000000     0.000650000000     0.0286229  
C72      C      0.524490000000     0.189240000000     0.000990000000    -0.0686603  
C73      C      0.473260000000     0.949630000000     0.689230000000    -0.0687671  
C74      C      0.487200000000     0.987010000000     0.712650000000     0.0237853  
C75      C      0.501140000000     0.024370000000     0.689220000000    -0.0687161  
C76      C      0.500800000000     0.024510000000     0.643180000000     0.0286178  
C77      C      0.487190000000     0.987000000000     0.619680000000    -0.114974   
C78      C      0.473580000000     0.949500000000     0.643190000000     0.0285595  
C79      C      0.487200000000     0.987010000000     0.761430000000     0.0237643  
C80      C      0.449820000000     0.973070000000     0.784860000000    -0.0687807  
C81      C      0.449680000000     0.973420000000     0.830900000000     0.0285782  
C82      C      0.487170000000     0.987040000000     0.854410000000    -0.114963   
C83      C      0.524680000000     0.000650000000     0.830900000000     0.0286132  
C84      C      0.524560000000     0.000970000000     0.784860000000    -0.0687096  
C85      C      0.449710000000     0.000980000000     0.189220000000    -0.0687199  
C86      C      0.487080000000     0.987030000000     0.212650000000     0.0237842  
C87      C      0.524450000000     0.973090000000     0.189230000000    -0.0687504  
C88      C      0.524600000000     0.973430000000     0.143190000000     0.0285505  
C89      C      0.487100000000     0.987050000000     0.119680000000    -0.114989   
C90      C      0.449590000000     0.000660000000     0.143180000000     0.0286526  
C91      C      0.487070000000     0.987020000000     0.261430000000     0.0237661  
C92      C      0.473110000000     0.024380000000     0.284860000000    -0.0687148  
C93      C      0.473440000000     0.024510000000     0.330900000000     0.0286186  
C94      C      0.487070000000     0.987010000000     0.354410000000    -0.114967   
C95      C      0.500690000000     0.949510000000     0.330900000000     0.0285359  
C96      C      0.501020000000     0.949650000000     0.284860000000    -0.0687335  
C97      C      0.000980000000     0.449700000000     0.784920000000    -0.06873    
C98      C      0.987020000000     0.487070000000     0.761480000000     0.023776   
C99      C      0.973070000000     0.524440000000     0.784910000000    -0.0688104  
C100     C      0.973420000000     0.524580000000     0.830940000000     0.0285971  
C101     C      0.987050000000     0.487080000000     0.854460000000    -0.115046   
C102     C      0.000660000000     0.449580000000     0.830950000000     0.028693   
C103     C      0.987010000000     0.487060000000     0.712700000000     0.0237721  
C104     C      0.024380000000     0.473120000000     0.689270000000    -0.0687011  
C105     C      0.024510000000     0.473460000000     0.643230000000     0.0285803  
C106     C      0.987000000000     0.487070000000     0.619730000000    -0.11489    
C107     C      0.949500000000     0.500680000000     0.643240000000     0.0285302  
C108     C      0.949640000000     0.501010000000     0.689280000000    -0.068755   
C109     C      0.973100000000     0.449810000000     0.189290000000    -0.0687507  
C110     C      0.987030000000     0.487180000000     0.212700000000     0.0237993  
C111     C      0.000980000000     0.524550000000     0.189270000000    -0.0687297  
C112     C      0.000660000000     0.524670000000     0.143230000000     0.0286269  
C113     C      0.987060000000     0.487160000000     0.119730000000    -0.114915   
C114     C      0.973440000000     0.449660000000     0.143250000000     0.028517   
C115     C      0.987020000000     0.487200000000     0.261480000000     0.0237504  
C116     C      0.949650000000     0.473250000000     0.284910000000    -0.0687193  
C117     C      0.949510000000     0.473580000000     0.330950000000     0.0285246  
C118     C      0.987010000000     0.487200000000     0.354460000000    -0.114967   
C119     C      0.024510000000     0.500820000000     0.330950000000     0.0286194  
C120     C      0.024380000000     0.501150000000     0.284910000000    -0.0686914  
C121     C      0.189300000000     0.973070000000     0.449800000000    -0.0688144  
C122     C      0.212730000000     0.987010000000     0.487170000000     0.0238117  
C123     C      0.189300000000     0.000980000000     0.524530000000    -0.0687286  
C124     C      0.143260000000     0.000680000000     0.524660000000     0.0286707  
C125     C      0.119760000000     0.987070000000     0.487160000000    -0.115015   
C126     C      0.143260000000     0.973440000000     0.449660000000     0.0286019  
C127     C      0.261510000000     0.987000000000     0.487170000000     0.0237213  
C128     C      0.284930000000     0.949630000000     0.473220000000    -0.0686842  
C129     C      0.330970000000     0.949480000000     0.473530000000     0.0284407  
C130     C      0.354480000000     0.986990000000     0.487130000000    -0.11483    
C131     C      0.330980000000     0.024500000000     0.500750000000     0.028557   
C132     C      0.284950000000     0.024370000000     0.501100000000    -0.0686548  
C133     C      0.784930000000     0.973170000000     0.524420000000    -0.0688067  
C134     C      0.761510000000     0.987100000000     0.487030000000     0.0237842  
C135     C      0.784950000000     0.001060000000     0.449670000000    -0.0687237  
C136     C      0.830990000000     0.000750000000     0.449560000000     0.028651   
C137     C      0.854480000000     0.987150000000     0.487080000000    -0.115037   
C138     C      0.830960000000     0.973530000000     0.524570000000     0.0286262  
C139     C      0.712730000000     0.987080000000     0.487010000000     0.0237539  
C140     C      0.689320000000     0.949700000000     0.500950000000    -0.0687427  
C141     C      0.643280000000     0.949540000000     0.500610000000     0.0285052  
C142     C      0.619760000000     0.987030000000     0.486990000000    -0.114852   
C143     C      0.643250000000     0.024550000000     0.473370000000     0.0285234  
C144     C      0.689290000000     0.024430000000     0.473050000000    -0.0686419  
C145     C      0.024360000000     0.689310000000     0.501130000000    -0.068665   
C146     C      0.987000000000     0.712750000000     0.487180000000     0.0237501  
C147     C      0.949630000000     0.689330000000     0.473220000000    -0.0687566  
C148     C      0.949490000000     0.643290000000     0.473550000000     0.028517   
C149     C      0.986990000000     0.619770000000     0.487160000000    -0.114887   
C150     C      0.024490000000     0.643270000000     0.500790000000     0.0285705  
C151     C      0.987010000000     0.761530000000     0.487180000000     0.0237821  
C152     C      0.000960000000     0.784950000000     0.524540000000    -0.0686893  
C153     C      0.000650000000     0.830990000000     0.524670000000     0.0285877  
C154     C      0.987070000000     0.854500000000     0.487150000000    -0.114927   
C155     C      0.973450000000     0.830990000000     0.449650000000     0.0285403  
C156     C      0.973090000000     0.784960000000     0.449800000000    -0.0687667  
C157     C      0.001060000000     0.189310000000     0.449700000000    -0.0687172  
C158     C      0.987090000000     0.212750000000     0.487060000000     0.0237626  
C159     C      0.973140000000     0.189320000000     0.524430000000    -0.068751   
C160     C      0.973490000000     0.143280000000     0.524580000000     0.0285687  
C161     C      0.987130000000     0.119770000000     0.487090000000    -0.114994   
C162     C      0.000740000000     0.143280000000     0.449580000000     0.0286503  
C163     C      0.987060000000     0.261530000000     0.487040000000     0.0237755  
C164     C      0.024430000000     0.284970000000     0.473100000000    -0.0687062  
C165     C      0.024540000000     0.331010000000     0.473430000000     0.0286067  
C166     C      0.987030000000     0.354500000000     0.487040000000    -0.114896   
C167     C      0.949530000000     0.330980000000     0.500650000000     0.028516   
C168     C      0.949680000000     0.284940000000     0.500980000000    -0.0687652  
H1       H      0.767550000000     0.553800000000     0.011640000000     0.0478331  
H2       H      0.848070000000     0.553980000000     0.011480000000     0.0342648  
H3       H      0.848100000000     0.420240000000     0.962690000000     0.0342513  
H4       H      0.767580000000     0.420400000000     0.962510000000     0.0478038  
H5       H      0.706590000000     0.462500000000     0.920370000000     0.0477916  
H6       H      0.626080000000     0.462650000000     0.920200000000     0.0342643  
H7       H      0.626050000000     0.511490000000     0.053920000000     0.0342606  
H8       H      0.706560000000     0.511680000000     0.053760000000     0.0478043  
H9       H      0.206580000000     0.553800000000     0.962470000000     0.0477938  
H10      H      0.126060000000     0.553980000000     0.962650000000     0.0342719  
H11      H      0.126060000000     0.420250000000     0.011510000000     0.0342776  
H12      H      0.206570000000     0.420410000000     0.011670000000     0.0478194  
H13      H      0.267570000000     0.462510000000     0.053760000000     0.0478252  
H14      H      0.348080000000     0.462670000000     0.053920000000     0.0342545  
H15      H      0.348090000000     0.511480000000     0.920180000000     0.0342433  
H16      H      0.267570000000     0.511670000000     0.920360000000     0.0478354  
H17      H      0.553830000000     0.767540000000     0.962490000000     0.0477922  
H18      H      0.554010000000     0.848050000000     0.962660000000     0.0342432  
H19      H      0.420260000000     0.848080000000     0.011460000000     0.0342691  
H20      H      0.420410000000     0.767570000000     0.011630000000     0.0478097  
H21      H      0.462510000000     0.706560000000     0.053750000000     0.047832   
H22      H      0.462660000000     0.626050000000     0.053920000000     0.0342555  
H23      H      0.511520000000     0.626050000000     0.920190000000     0.0342572  
H24      H      0.511710000000     0.706560000000     0.920370000000     0.047822   
H25      H      0.511680000000     0.267550000000     0.053740000000     0.0478159  
H26      H      0.511490000000     0.348060000000     0.053910000000     0.0342703  
H27      H      0.462700000000     0.348070000000     0.920170000000     0.034268   
H28      H      0.462540000000     0.267560000000     0.920330000000     0.0477865  
H29      H      0.420430000000     0.206560000000     0.962430000000     0.0478024  
H30      H      0.420280000000     0.126040000000     0.962600000000     0.0342743  
H31      H      0.554000000000     0.126050000000     0.011460000000     0.0342833  
H32      H      0.553820000000     0.206570000000     0.011630000000     0.0477978  
H33      H      0.511780000000     0.053700000000     0.706530000000     0.0478149  
H34      H      0.511590000000     0.053870000000     0.626020000000     0.0342622  
H35      H      0.462790000000     0.920130000000     0.626050000000     0.0342601  
H36      H      0.462630000000     0.920300000000     0.706560000000     0.0478016  
H37      H      0.420500000000     0.962430000000     0.767530000000     0.0478068  
H38      H      0.420310000000     0.962620000000     0.848050000000     0.0342549  
H39      H      0.554040000000     0.011450000000     0.848060000000     0.0342705  
H40      H      0.553890000000     0.011600000000     0.767540000000     0.0478174  
H41      H      0.553780000000     0.962450000000     0.206560000000     0.0477915  
H42      H      0.553970000000     0.962640000000     0.126040000000     0.034264   
H43      H      0.420230000000     0.011460000000     0.126020000000     0.0342801  
H44      H      0.420380000000     0.011610000000     0.206540000000     0.0478311  
H45      H      0.462470000000     0.053710000000     0.267550000000     0.0478226  
H46      H      0.462640000000     0.053870000000     0.348060000000     0.034266   
H47      H      0.511490000000     0.920150000000     0.348050000000     0.0342729  
H48      H      0.511660000000     0.920320000000     0.267530000000     0.0477913  
H49      H      0.962430000000     0.553760000000     0.767580000000     0.0478145  
H50      H      0.962630000000     0.553950000000     0.848100000000     0.0342447  
H51      H      0.011470000000     0.420220000000     0.848110000000     0.0342524  
H52      H      0.011620000000     0.420370000000     0.767600000000     0.0478194  
H53      H      0.053710000000     0.462480000000     0.706580000000     0.0478141  
H54      H      0.053870000000     0.462670000000     0.626070000000     0.0342741  
H55      H      0.920130000000     0.511480000000     0.626100000000     0.03427    
H56      H      0.920310000000     0.511640000000     0.706610000000     0.0477993  
H57      H      0.011610000000     0.553880000000     0.206580000000     0.0478328  
H58      H      0.011460000000     0.554030000000     0.126060000000     0.0342831  
H59      H      0.962650000000     0.420290000000     0.126100000000     0.0342821  
H60      H      0.962460000000     0.420480000000     0.206620000000     0.0477957  
H61      H      0.920320000000     0.462610000000     0.267580000000     0.0477863  
H62      H      0.920150000000     0.462780000000     0.348100000000     0.0342758  
H63      H      0.053870000000     0.511620000000     0.348110000000     0.0342654  
H64      H      0.053710000000     0.511790000000     0.267590000000     0.0478085  
H65      H      0.206620000000     0.011610000000     0.553860000000     0.0478248  
H66      H      0.126110000000     0.011490000000     0.554020000000     0.0342649  
H67      H      0.126110000000     0.962640000000     0.420290000000     0.0342492  
H68      H      0.206620000000     0.962420000000     0.420480000000     0.0478263  
H69      H      0.267600000000     0.920300000000     0.462590000000     0.0477802  
H70      H      0.348120000000     0.920120000000     0.462730000000     0.034287   
H71      H      0.348140000000     0.053860000000     0.511530000000     0.0342873  
H72      H      0.267630000000     0.053700000000     0.511740000000     0.0478003  
H73      H      0.767640000000     0.011680000000     0.420330000000     0.0478221  
H74      H      0.848150000000     0.011550000000     0.420200000000     0.03426    
H75      H      0.848110000000     0.962740000000     0.553950000000     0.0342278  
H76      H      0.767590000000     0.962530000000     0.553740000000     0.0478057  
H77      H      0.706650000000     0.920380000000     0.511600000000     0.0477989  
H78      H      0.626130000000     0.920170000000     0.511410000000     0.0342751  
H79      H      0.626080000000     0.053900000000     0.462570000000     0.0342883  
H80      H      0.706600000000     0.053770000000     0.462410000000     0.0477869  
H81      H      0.920310000000     0.706660000000     0.462580000000     0.0478068  
H82      H      0.920130000000     0.626140000000     0.462740000000     0.0342724  
H83      H      0.053850000000     0.626110000000     0.511580000000     0.0342815  
H84      H      0.053690000000     0.706630000000     0.511770000000     0.0477971  
H85      H      0.011580000000     0.767630000000     0.553880000000     0.0478039  
H86      H      0.011450000000     0.848140000000     0.554030000000     0.0342758  
H87      H      0.962670000000     0.848150000000     0.420280000000     0.034257   
H88      H      0.962450000000     0.767640000000     0.420470000000     0.047796   
H89      H      0.962480000000     0.206650000000     0.553750000000     0.0477943  
H90      H      0.962690000000     0.126130000000     0.553950000000     0.0342598  
H91      H      0.011560000000     0.126120000000     0.420230000000     0.0342791  
H92      H      0.011690000000     0.206630000000     0.420370000000     0.0478286  
H93      H      0.053760000000     0.267650000000     0.462470000000     0.0478197  
H94      H      0.053900000000     0.348170000000     0.462640000000     0.0342745  
H95      H      0.920160000000     0.348130000000     0.511440000000     0.0342808  
H96      H      0.920360000000     0.267610000000     0.511620000000     0.0478118  
Ni1      Ni     0.987110000000     0.987140000000     0.526430000000     0.994306   
Ni2      Ni     0.987130000000     0.987130000000     0.447810000000     0.994306   
Ni3      Ni     0.026310000000     0.487140000000     0.487090000000     0.994399   
Ni4      Ni     0.947700000000     0.487130000000     0.487090000000     0.993968   
Ni5      Ni     0.487130000000     0.947700000000     0.487040000000     0.994183   
Ni6      Ni     0.487110000000     0.026310000000     0.487040000000     0.994229   
Ni7      Ni     0.447830000000     0.987060000000     0.987030000000     0.994189   
Ni8      Ni     0.526450000000     0.987050000000     0.987050000000     0.994208   
Ni9      Ni     0.987070000000     0.447810000000     0.987110000000     0.994172   
Ni10     Ni     0.987070000000     0.526430000000     0.987080000000     0.994333   
Ni11     Ni     0.487070000000     0.487050000000     0.026360000000     0.994368   
Ni12     Ni     0.487080000000     0.487060000000     0.947740000000     0.994204   
O1       O      0.988330000000     0.924070000000     0.523830000000    -0.438106   
O2       O      0.985880000000     0.050210000000     0.523790000000    -0.438133   
O3       O      0.924040000000     0.985920000000     0.523790000000    -0.438096   
O4       O      0.050180000000     0.988360000000     0.523830000000    -0.438061   
O5       O      0.050200000000     0.985870000000     0.450450000000    -0.438104   
O6       O      0.924060000000     0.988390000000     0.450410000000    -0.438174   
O7       O      0.988390000000     0.050200000000     0.450410000000    -0.438077   
O8       O      0.985870000000     0.924060000000     0.450440000000    -0.438075   
O9       O      0.023700000000     0.485870000000     0.550160000000    -0.437944   
O10      O      0.023700000000     0.488410000000     0.424020000000    -0.438101   
O11      O      0.023690000000     0.550210000000     0.488360000000    -0.438057   
O12      O      0.023710000000     0.424070000000     0.485820000000    -0.437994   
O13      O      0.950320000000     0.424060000000     0.488310000000    -0.437981   
O14      O      0.950300000000     0.550210000000     0.485890000000    -0.437922   
O15      O      0.950320000000     0.485920000000     0.424020000000    -0.438141   
O16      O      0.950310000000     0.488340000000     0.550170000000    -0.437949   
O17      O      0.488340000000     0.950320000000     0.423970000000    -0.438154   
O18      O      0.485920000000     0.950310000000     0.550120000000    -0.43805    
O19      O      0.424060000000     0.950300000000     0.485840000000    -0.437996   
O20      O      0.550200000000     0.950320000000     0.488250000000    -0.437976   
O21      O      0.550180000000     0.023710000000     0.485770000000    -0.437939   
O22      O      0.424040000000     0.023690000000     0.488320000000    -0.437911   
O23      O      0.488380000000     0.023690000000     0.550120000000    -0.438005   
O24      O      0.485840000000     0.023700000000     0.423970000000    -0.438078   
O25      O      0.450450000000     0.050130000000     0.985790000000    -0.43812    
O26      O      0.450450000000     0.923990000000     0.988280000000    -0.438148   
O27      O      0.450430000000     0.988300000000     0.050110000000    -0.437988   
O28      O      0.450460000000     0.985810000000     0.923960000000    -0.438109   
O29      O      0.523850000000     0.988290000000     0.923980000000    -0.438131   
O30      O      0.523810000000     0.985820000000     0.050120000000    -0.438114   
O31      O      0.523830000000     0.923980000000     0.985820000000    -0.438162   
O32      O      0.523830000000     0.050130000000     0.988290000000    -0.438062   
O33      O      0.988310000000     0.450410000000     0.924030000000    -0.43808    
O34      O      0.985830000000     0.450440000000     0.050180000000    -0.438014   
O35      O      0.924000000000     0.450430000000     0.985870000000    -0.438111   
O36      O      0.050140000000     0.450430000000     0.988340000000    -0.43806    
O37      O      0.050140000000     0.523810000000     0.985840000000    -0.438086   
O38      O      0.924000000000     0.523810000000     0.988330000000    -0.43813    
O39      O      0.988310000000     0.523830000000     0.050150000000    -0.438034   
O40      O      0.985820000000     0.523790000000     0.924010000000    -0.438228   
O41      O      0.488310000000     0.423980000000     0.023740000000    -0.438073   
O42      O      0.485830000000     0.550130000000     0.023750000000    -0.437853   
O43      O      0.424000000000     0.485810000000     0.023740000000    -0.438045   
O44      O      0.550140000000     0.488290000000     0.023750000000    -0.438028   
O45      O      0.550150000000     0.485820000000     0.950360000000    -0.438015   
O46      O      0.424000000000     0.488300000000     0.950360000000    -0.438028   
O47      O      0.488320000000     0.550130000000     0.950360000000    -0.438026   
O48      O      0.485840000000     0.423990000000     0.950360000000    -0.438111   


