data_structure

_audit_creation_method RASPA-1.0
_audit_creation_date 2023-5-22
_audit_author_name 'Poobodin Mano'

_cell_length_a    30.3575
_cell_length_b    30.3575
_cell_length_c    30.411
_cell_angle_alpha 90
_cell_angle_beta  90
_cell_angle_gamma 89.997
_cell_volume      28026.1

_symmetry_cell_setting          triclinic
_symmetry_space_group_name_Hall 'P 1'
_symmetry_space_group_name_H-M  'P 1'
_symmetry_Int_Tables_number     1

_symmetry_equiv_pos_as_xyz 'x,y,z'

loop_
_atom_site_label
_atom_site_type_symbol
_atom_site_fract_x
_atom_site_fract_y
_atom_site_fract_z
_atom_site_charge
C1       C      0.987280000000     0.071050000000     0.986310000000     0.386456   
C2       C      0.987200000000     0.903230000000     0.986330000000     0.386472   
C3       C      0.071160000000     0.987090000000     0.986340000000     0.386457   
C4       C      0.903340000000     0.987180000000     0.986300000000     0.386258   
C5       C      0.987030000000     0.903180000000     0.486220000000     0.386311   
C6       C      0.987030000000     0.071010000000     0.486220000000     0.38636    
C7       C      0.903120000000     0.987100000000     0.486230000000     0.386392   
C8       C      0.070940000000     0.987090000000     0.486210000000     0.38636    
C9       C      0.987120000000     0.403220000000     0.986210000000     0.386535   
C10      C      0.987070000000     0.571060000000     0.986240000000     0.386558   
C11      C      0.987090000000     0.487150000000     0.902440000000     0.386343   
C12      C      0.987080000000     0.487120000000     0.070000000000     0.386375   
C13      C      0.987030000000     0.571020000000     0.486210000000     0.386544   
C14      C      0.987040000000     0.403180000000     0.486230000000     0.386636   
C15      C      0.987040000000     0.487090000000     0.402440000000     0.386379   
C16      C      0.987040000000     0.487110000000     0.569990000000     0.386497   
C17      C      0.487280000000     0.987080000000     0.070040000000     0.38639    
C18      C      0.487210000000     0.987060000000     0.902480000000     0.386397   
C19      C      0.403330000000     0.987050000000     0.986300000000     0.38661    
C20      C      0.571170000000     0.987100000000     0.986230000000     0.386366   
C21      C      0.487010000000     0.987050000000     0.570030000000     0.38647    
C22      C      0.487070000000     0.987070000000     0.402480000000     0.386453   
C23      C      0.570950000000     0.987060000000     0.486280000000     0.386611   
C24      C      0.403110000000     0.987060000000     0.486230000000     0.386519   
C25      C      0.499400000000     0.024980000000     0.784390000000    -0.0681383  
C26      C      0.487100000000     0.987050000000     0.760770000000     0.0238004  
C27      C      0.474840000000     0.949120000000     0.784420000000    -0.068216   
C28      C      0.475180000000     0.949040000000     0.830380000000     0.0286634  
C29      C      0.487180000000     0.987050000000     0.853830000000    -0.114923   
C30      C      0.499140000000     0.025070000000     0.830350000000     0.0287243  
C31      C      0.487060000000     0.987040000000     0.711750000000     0.0237729  
C32      C      0.474750000000     0.024970000000     0.688120000000    -0.0681054  
C33      C      0.475020000000     0.025050000000     0.642160000000     0.0286996  
C34      C      0.487020000000     0.987040000000     0.618690000000    -0.114864   
C35      C      0.499020000000     0.949030000000     0.642150000000     0.0286533  
C36      C      0.499350000000     0.949120000000     0.688100000000    -0.0682117  
C37      C      0.474950000000     0.025020000000     0.188100000000    -0.0681119  
C38      C      0.487230000000     0.987090000000     0.211750000000     0.0237809  
C39      C      0.499550000000     0.949170000000     0.188120000000    -0.0682256  
C40      C      0.499270000000     0.949080000000     0.142160000000     0.028653   
C41      C      0.487280000000     0.987090000000     0.118690000000    -0.11492    
C42      C      0.475270000000     0.025100000000     0.142150000000     0.0287622  
C43      C      0.487190000000     0.987090000000     0.260770000000     0.0238096  
C44      C      0.499450000000     0.025010000000     0.284420000000    -0.0681478  
C45      C      0.499100000000     0.025090000000     0.330380000000     0.0287968  
C46      C      0.487100000000     0.987080000000     0.353830000000    -0.114969   
C47      C      0.475140000000     0.949070000000     0.330350000000     0.0286721  
C48      C      0.474890000000     0.949160000000     0.284390000000    -0.0682102  
C49      C      0.949140000000     0.474830000000     0.688080000000    -0.0681944  
C50      C      0.987060000000     0.487140000000     0.711710000000     0.0237667  
C51      C      0.024980000000     0.499440000000     0.688060000000    -0.0681052  
C52      C      0.025060000000     0.499130000000     0.642110000000     0.0287271  
C53      C      0.987050000000     0.487120000000     0.618650000000    -0.114878   
C54      C      0.949050000000     0.475120000000     0.642120000000     0.0286438  
C55      C      0.987070000000     0.487150000000     0.760730000000     0.0238105  
C56      C      0.949150000000     0.499430000000     0.784370000000    -0.0682119  
C57      C      0.949070000000     0.499140000000     0.830330000000     0.0286456  
C58      C      0.987090000000     0.487160000000     0.853790000000    -0.114924   
C59      C      0.025100000000     0.475180000000     0.830320000000     0.0287561  
C60      C      0.025010000000     0.474880000000     0.784360000000    -0.0681539  
C61      C      0.949140000000     0.474810000000     0.188060000000    -0.068177   
C62      C      0.987060000000     0.487100000000     0.211710000000     0.0237538  
C63      C      0.024990000000     0.499400000000     0.188080000000    -0.0680852  
C64      C      0.025080000000     0.499110000000     0.142120000000     0.0287366  
C65      C      0.987080000000     0.487120000000     0.118650000000    -0.114885   
C66      C      0.949060000000     0.475110000000     0.142110000000     0.0286094  
C67      C      0.987050000000     0.487100000000     0.260730000000     0.023826   
C68      C      0.949120000000     0.499380000000     0.284360000000    -0.0682271  
C69      C      0.949030000000     0.499080000000     0.330320000000     0.0286685  
C70      C      0.987040000000     0.487090000000     0.353790000000    -0.114952   
C71      C      0.025050000000     0.475110000000     0.330330000000     0.0287801  
C72      C      0.024970000000     0.474810000000     0.284370000000    -0.0681567  
C73      C      0.189210000000     0.972730000000     0.449040000000    -0.0687084  
C74      C      0.212640000000     0.987080000000     0.486200000000     0.0237692  
C75      C      0.189220000000     0.001420000000     0.523360000000    -0.0686404  
C76      C      0.143180000000     0.001090000000     0.523500000000     0.0287045  
C77      C      0.119670000000     0.987090000000     0.486200000000    -0.114947   
C78      C      0.143170000000     0.973080000000     0.448900000000     0.0285846  
C79      C      0.261420000000     0.987070000000     0.486200000000     0.0239289  
C80      C      0.284850000000     0.949480000000     0.472880000000    -0.0687891  
C81      C      0.330890000000     0.949340000000     0.473230000000     0.0288734  
C82      C      0.354390000000     0.987060000000     0.486220000000    -0.115073   
C83      C      0.330890000000     0.024790000000     0.499190000000     0.0289568  
C84      C      0.284840000000     0.024660000000     0.499530000000    -0.0687061  
C85      C      0.689230000000     0.949480000000     0.499600000000    -0.0687969  
C86      C      0.712650000000     0.987080000000     0.486270000000     0.0239021  
C87      C      0.689210000000     0.024670000000     0.472950000000    -0.0686965  
C88      C      0.643170000000     0.024800000000     0.473300000000     0.028961   
C89      C      0.619670000000     0.987070000000     0.486280000000    -0.115084   
C90      C      0.643180000000     0.949350000000     0.499260000000     0.0288592  
C91      C      0.761420000000     0.987080000000     0.486260000000     0.0237815  
C92      C      0.784860000000     0.972730000000     0.523410000000    -0.068763   
C93      C      0.830900000000     0.973080000000     0.523540000000     0.0286461  
C94      C      0.854400000000     0.987090000000     0.486240000000    -0.115071   
C95      C      0.830880000000     0.001090000000     0.448950000000     0.0287424  
C96      C      0.784840000000     0.001430000000     0.449100000000    -0.0686322  
C97      C      0.001380000000     0.784910000000     0.523370000000    -0.0686858  
C98      C      0.987030000000     0.761490000000     0.486210000000     0.0238171  
C99      C      0.972680000000     0.784910000000     0.449060000000    -0.0687647  
C100     C      0.973020000000     0.830950000000     0.448920000000     0.0286242  
C101     C      0.987030000000     0.854460000000     0.486220000000    -0.115052   
C102     C      0.001040000000     0.830950000000     0.523510000000     0.0287535  
C103     C      0.987030000000     0.712710000000     0.486210000000     0.0239036  
C104     C      0.024620000000     0.689280000000     0.499530000000    -0.0686788  
C105     C      0.024760000000     0.643240000000     0.499180000000     0.0289553  
C106     C      0.987030000000     0.619740000000     0.486210000000    -0.115088   
C107     C      0.949310000000     0.643240000000     0.473240000000     0.0288743  
C108     C      0.949440000000     0.689290000000     0.472890000000    -0.0687799  
C109     C      0.972690000000     0.189280000000     0.523380000000    -0.0687383  
C110     C      0.987030000000     0.212700000000     0.486220000000     0.0237938  
C111     C      0.001370000000     0.189280000000     0.449060000000    -0.0686461  
C112     C      0.001030000000     0.143240000000     0.448920000000     0.0287368  
C113     C      0.987030000000     0.119730000000     0.486220000000    -0.115033   
C114     C      0.973030000000     0.143240000000     0.523520000000     0.0286198  
C115     C      0.987030000000     0.261480000000     0.486220000000     0.0239218  
C116     C      0.949440000000     0.284910000000     0.499550000000    -0.0688151  
C117     C      0.949310000000     0.330950000000     0.499210000000     0.0288695  
C118     C      0.987040000000     0.354460000000     0.486230000000    -0.115081   
C119     C      0.024760000000     0.330950000000     0.473240000000     0.0289715  
C120     C      0.024620000000     0.284910000000     0.472890000000    -0.0687085  
C121     C      0.189430000000     0.972690000000     0.949200000000    -0.0687475  
C122     C      0.212860000000     0.987030000000     0.986360000000     0.0236956  
C123     C      0.189430000000     0.001390000000     0.023510000000    -0.0685659  
C124     C      0.143390000000     0.001060000000     0.023650000000     0.0288076  
C125     C      0.119890000000     0.987070000000     0.986350000000    -0.115103   
C126     C      0.143390000000     0.973050000000     0.949060000000     0.0286588  
C127     C      0.261640000000     0.987030000000     0.986350000000     0.0239731  
C128     C      0.285060000000     0.949440000000     0.973030000000    -0.0688257  
C129     C      0.331110000000     0.949310000000     0.973360000000     0.028876   
C130     C      0.354610000000     0.987040000000     0.986320000000    -0.115087   
C131     C      0.331100000000     0.024760000000     0.999310000000     0.0289193  
C132     C      0.285060000000     0.024620000000     0.999670000000    -0.0687753  
C133     C      0.785060000000     0.972830000000     0.023430000000    -0.0686309  
C134     C      0.761640000000     0.987170000000     0.986260000000     0.0236573  
C135     C      0.785070000000     0.001520000000     0.949110000000    -0.0685691  
C136     C      0.831120000000     0.001180000000     0.948980000000     0.0286597  
C137     C      0.854610000000     0.987190000000     0.986290000000    -0.114999   
C138     C      0.831100000000     0.973180000000     0.023580000000     0.028631   
C139     C      0.712860000000     0.987150000000     0.986240000000     0.0239756  
C140     C      0.689450000000     0.949550000000     0.999560000000    -0.0688601  
C141     C      0.643410000000     0.949400000000     0.999210000000     0.0287944  
C142     C      0.619890000000     0.987110000000     0.986220000000    -0.115004   
C143     C      0.643380000000     0.024840000000     0.973240000000     0.0289348  
C144     C      0.689430000000     0.024730000000     0.972910000000    -0.068731   
C145     C      0.001440000000     0.784940000000     0.023490000000    -0.068578   
C146     C      0.987090000000     0.761530000000     0.986320000000     0.0236886  
C147     C      0.972780000000     0.784970000000     0.949170000000    -0.0687025  
C148     C      0.973150000000     0.831010000000     0.949030000000     0.0286274  
C149     C      0.987160000000     0.854500000000     0.986330000000    -0.115105   
C150     C      0.001140000000     0.830980000000     0.023630000000     0.0287871  
C151     C      0.987080000000     0.712750000000     0.986310000000     0.0239894  
C152     C      0.024660000000     0.689320000000     0.999640000000    -0.0688293  
C153     C      0.024790000000     0.643270000000     0.999270000000     0.0289343  
C154     C      0.987070000000     0.619780000000     0.986270000000    -0.115077   
C155     C      0.949350000000     0.643300000000     0.973290000000     0.0288667  
C156     C      0.949490000000     0.689340000000     0.972970000000    -0.0688234  
C157     C      0.949590000000     0.284940000000     0.999550000000    -0.068803   
C158     C      0.987200000000     0.261530000000     0.986250000000     0.0239233  
C159     C      0.024770000000     0.284970000000     0.972920000000    -0.068674   
C160     C      0.024880000000     0.331010000000     0.973240000000     0.0289255  
C161     C      0.987140000000     0.354500000000     0.986210000000    -0.115026   
C162     C      0.949420000000     0.330980000000     0.999190000000     0.0287533  
C163     C      0.987230000000     0.212750000000     0.986270000000     0.0237184  
C164     C      0.972890000000     0.189330000000     0.023430000000    -0.0686824  
C165     C      0.973260000000     0.143290000000     0.023590000000     0.0286976  
C166     C      0.987280000000     0.119780000000     0.986300000000    -0.115092   
C167     C      0.001280000000     0.143270000000     0.949000000000     0.0287495  
C168     C      0.001600000000     0.189320000000     0.949120000000    -0.0686448  
H1       H      0.464370000000     0.919540000000     0.767500000000     0.0469421  
H2       H      0.465430000000     0.919320000000     0.847520000000     0.033939   
H3       H      0.508910000000     0.054790000000     0.847470000000     0.0339477  
H4       H      0.509840000000     0.054550000000     0.767450000000     0.0469632  
H5       H      0.464280000000     0.054540000000     0.705050000000     0.0469482  
H6       H      0.465250000000     0.054770000000     0.625030000000     0.0339546  
H7       H      0.508790000000     0.919310000000     0.625010000000     0.0339447  
H8       H      0.509830000000     0.919550000000     0.705030000000     0.0469442  
H9       H      0.510010000000     0.919600000000     0.205050000000     0.0469616  
H10      H      0.509050000000     0.919360000000     0.125040000000     0.0339481  
H11      H      0.465500000000     0.054820000000     0.125010000000     0.0339492  
H12      H      0.464460000000     0.054590000000     0.205030000000     0.046945   
H13      H      0.509920000000     0.054590000000     0.267500000000     0.0469541  
H14      H      0.508850000000     0.054820000000     0.347520000000     0.0339284  
H15      H      0.465370000000     0.919340000000     0.347470000000     0.0339429  
H16      H      0.464440000000     0.919580000000     0.267450000000     0.0469406  
H17      H      0.054550000000     0.509920000000     0.704990000000     0.046942   
H18      H      0.054770000000     0.508900000000     0.624970000000     0.0339442  
H19      H      0.919320000000     0.465340000000     0.625000000000     0.0339436  
H20      H      0.919570000000     0.464360000000     0.705020000000     0.046936   
H21      H      0.919560000000     0.509880000000     0.767450000000     0.0469375  
H22      H      0.919340000000     0.508890000000     0.847460000000     0.0339408  
H23      H      0.054830000000     0.465430000000     0.847450000000     0.0339364  
H24      H      0.054580000000     0.464420000000     0.767430000000     0.0469651  
H25      H      0.054560000000     0.509870000000     0.205020000000     0.0469397  
H26      H      0.054800000000     0.508880000000     0.125000000000     0.0339574  
H27      H      0.919350000000     0.465340000000     0.124970000000     0.0339652  
H28      H      0.919570000000     0.464330000000     0.204990000000     0.0469404  
H29      H      0.919540000000     0.509840000000     0.267430000000     0.0469485  
H30      H      0.919300000000     0.508840000000     0.347450000000     0.0339391  
H31      H      0.054770000000     0.465340000000     0.347460000000     0.0339334  
H32      H      0.054550000000     0.464350000000     0.267450000000     0.046964   
H33      H      0.206550000000     0.012380000000     0.552510000000     0.0479359  
H34      H      0.126020000000     0.012200000000     0.552700000000     0.0343123  
H35      H      0.126010000000     0.961980000000     0.419710000000     0.0342933  
H36      H      0.206540000000     0.961780000000     0.419880000000     0.0479041  
H37      H      0.267520000000     0.919990000000     0.462710000000     0.0478416  
H38      H      0.348050000000     0.919810000000     0.462920000000     0.033891   
H39      H      0.348050000000     0.054320000000     0.509510000000     0.0338945  
H40      H      0.267510000000     0.054150000000     0.509690000000     0.0478516  
H41      H      0.706540000000     0.054160000000     0.462790000000     0.0478438  
H42      H      0.626000000000     0.054330000000     0.463000000000     0.0338942  
H43      H      0.626030000000     0.919820000000     0.509570000000     0.0338913  
H44      H      0.706560000000     0.919990000000     0.509750000000     0.0478499  
H45      H      0.767540000000     0.961780000000     0.552570000000     0.0479169  
H46      H      0.848070000000     0.961980000000     0.552730000000     0.034263   
H47      H      0.848030000000     0.012200000000     0.419750000000     0.0342798  
H48      H      0.767500000000     0.012380000000     0.419940000000     0.0479124  
H49      H      0.961720000000     0.767590000000     0.419900000000     0.0479125  
H50      H      0.961910000000     0.848120000000     0.419730000000     0.0342629  
H51      H      0.012150000000     0.848110000000     0.552700000000     0.0342831  
H52      H      0.012340000000     0.767580000000     0.552520000000     0.0479414  
H53      H      0.054120000000     0.706610000000     0.509680000000     0.0478293  
H54      H      0.054290000000     0.626080000000     0.509490000000     0.0338902  
H55      H      0.919780000000     0.626080000000     0.462930000000     0.0338895  
H56      H      0.919940000000     0.706620000000     0.462740000000     0.0478326  
H57      H      0.012320000000     0.206610000000     0.419900000000     0.0479313  
H58      H      0.012130000000     0.126080000000     0.419720000000     0.0343028  
H59      H      0.961930000000     0.126080000000     0.552710000000     0.0342841  
H60      H      0.961740000000     0.206610000000     0.552540000000     0.0479116  
H61      H      0.919950000000     0.267590000000     0.509710000000     0.0478586  
H62      H      0.919780000000     0.348120000000     0.509520000000     0.0338957  
H63      H      0.054290000000     0.348110000000     0.462930000000     0.0338931  
H64      H      0.054110000000     0.267580000000     0.462730000000     0.0478536  
H65      H      0.206760000000     0.012340000000     0.052670000000     0.0479245  
H66      H      0.126230000000     0.012180000000     0.052840000000     0.0342972  
H67      H      0.126230000000     0.961950000000     0.919860000000     0.0342688  
H68      H      0.206760000000     0.961730000000     0.920050000000     0.0479192  
H69      H      0.267740000000     0.919940000000     0.962880000000     0.0478441  
H70      H      0.348270000000     0.919780000000     0.963040000000     0.0338865  
H71      H      0.348260000000     0.054300000000     0.009610000000     0.0339509  
H72      H      0.267730000000     0.054120000000     0.009830000000     0.0479024  
H73      H      0.767750000000     0.012470000000     0.919940000000     0.047895   
H74      H      0.848280000000     0.012290000000     0.919790000000     0.0342995  
H75      H      0.848250000000     0.962080000000     0.052780000000     0.034276   
H76      H      0.767720000000     0.961870000000     0.052580000000     0.0478917  
H77      H      0.706790000000     0.920060000000     0.009730000000     0.0478932  
H78      H      0.626260000000     0.919860000000     0.009520000000     0.0339646  
H79      H      0.626210000000     0.054370000000     0.962930000000     0.0338929  
H80      H      0.706740000000     0.054230000000     0.962750000000     0.0478469  
H81      H      0.961820000000     0.767650000000     0.920000000000     0.0478797  
H82      H      0.962070000000     0.848180000000     0.919830000000     0.0342627  
H83      H      0.012250000000     0.848140000000     0.052830000000     0.0342796  
H84      H      0.012380000000     0.767610000000     0.052650000000     0.0479255  
H85      H      0.054150000000     0.706630000000     0.009810000000     0.0479334  
H86      H      0.054320000000     0.626100000000     0.009580000000     0.0339561  
H87      H      0.919820000000     0.626140000000     0.962970000000     0.0338825  
H88      H      0.920000000000     0.706680000000     0.962810000000     0.047836   
H89      H      0.054280000000     0.267650000000     0.962770000000     0.0478227  
H90      H      0.054400000000     0.348180000000     0.962930000000     0.0338994  
H91      H      0.919880000000     0.348130000000     0.009490000000     0.0339695  
H92      H      0.920100000000     0.267590000000     0.009710000000     0.0478788  
H93      H      0.961920000000     0.206660000000     0.052580000000     0.0479156  
H94      H      0.962150000000     0.126130000000     0.052790000000     0.0342737  
H95      H      0.012400000000     0.126110000000     0.919810000000     0.0342941  
H96      H      0.012550000000     0.206640000000     0.919960000000     0.0479332  
Ni1      Ni     0.987240000000     0.987140000000     0.025560000000     0.994267   
Ni2      Ni     0.987260000000     0.987140000000     0.947080000000     0.994078   
Ni3      Ni     0.987040000000     0.987100000000     0.525460000000     0.994235   
Ni4      Ni     0.987030000000     0.987100000000     0.446970000000     0.994174   
Ni5      Ni     0.947770000000     0.487130000000     0.986220000000     0.994541   
Ni6      Ni     0.026410000000     0.487150000000     0.986220000000     0.994556   
Ni7      Ni     0.026360000000     0.487100000000     0.486220000000     0.994902   
Ni8      Ni     0.947710000000     0.487100000000     0.486220000000     0.994499   
Ni9      Ni     0.487240000000     0.026400000000     0.986250000000     0.994651   
Ni10     Ni     0.487260000000     0.947750000000     0.986270000000     0.994337   
Ni11     Ni     0.487040000000     0.947740000000     0.486250000000     0.994571   
Ni12     Ni     0.487030000000     0.026390000000     0.486260000000     0.994829   
O1       O      0.985990000000     0.050220000000     0.022940000000    -0.437947   
O2       O      0.988490000000     0.924070000000     0.022950000000    -0.438134   
O3       O      0.050320000000     0.988390000000     0.022960000000    -0.437985   
O4       O      0.924170000000     0.985890000000     0.022940000000    -0.437967   
O5       O      0.924180000000     0.988450000000     0.949680000000    -0.438021   
O6       O      0.050330000000     0.985820000000     0.949710000000    -0.438049   
O7       O      0.985940000000     0.924060000000     0.949700000000    -0.438037   
O8       O      0.988560000000     0.050210000000     0.949690000000    -0.438087   
O9       O      0.988320000000     0.924020000000     0.522850000000    -0.437977   
O10      O      0.985760000000     0.050170000000     0.522850000000    -0.437996   
O11      O      0.923960000000     0.985820000000     0.522860000000    -0.438      
O12      O      0.050110000000     0.988370000000     0.522840000000    -0.438037   
O13      O      0.050100000000     0.985810000000     0.449580000000    -0.437992   
O14      O      0.923950000000     0.988380000000     0.449600000000    -0.438053   
O15      O      0.988310000000     0.050170000000     0.449590000000    -0.438014   
O16      O      0.985750000000     0.924020000000     0.449590000000    -0.437969   
O17      O      0.950390000000     0.424050000000     0.986400000000    -0.438145   
O18      O      0.950360000000     0.550220000000     0.986050000000    -0.438133   
O19      O      0.950380000000     0.487230000000     0.923250000000    -0.438204   
O20      O      0.950370000000     0.487040000000     0.049190000000    -0.438153   
O21      O      0.023800000000     0.487220000000     0.049200000000    -0.437966   
O22      O      0.023810000000     0.487080000000     0.923250000000    -0.438046   
O23      O      0.023790000000     0.550230000000     0.986430000000    -0.438117   
O24      O      0.023820000000     0.424060000000     0.986020000000    -0.43813    
O25      O      0.023750000000     0.550180000000     0.486400000000    -0.438116   
O26      O      0.023750000000     0.424010000000     0.486030000000    -0.438147   
O27      O      0.023750000000     0.487010000000     0.423250000000    -0.438157   
O28      O      0.023750000000     0.487180000000     0.549190000000    -0.438255   
O29      O      0.950320000000     0.487020000000     0.549200000000    -0.438173   
O30      O      0.950320000000     0.487180000000     0.423250000000    -0.43813    
O31      O      0.950320000000     0.424010000000     0.486410000000    -0.438138   
O32      O      0.950320000000     0.550180000000     0.486030000000    -0.438202   
O33      O      0.487180000000     0.023800000000     0.049230000000    -0.437966   
O34      O      0.487300000000     0.023780000000     0.923280000000    -0.438109   
O35      O      0.424150000000     0.023770000000     0.986470000000    -0.438112   
O36      O      0.550320000000     0.023810000000     0.986040000000    -0.438086   
O37      O      0.550350000000     0.950370000000     0.986430000000    -0.438008   
O38      O      0.424170000000     0.950340000000     0.986100000000    -0.438152   
O39      O      0.487150000000     0.950350000000     0.923290000000    -0.438111   
O40      O      0.487370000000     0.950370000000     0.049240000000    -0.43818    
O41      O      0.487100000000     0.950340000000     0.549230000000    -0.438204   
O42      O      0.486970000000     0.950360000000     0.423280000000    -0.438258   
O43      O      0.550120000000     0.950350000000     0.486460000000    -0.438265   
O44      O      0.423950000000     0.950350000000     0.486040000000    -0.43813    
O45      O      0.423950000000     0.023780000000     0.486430000000    -0.438085   
O46      O      0.550110000000     0.023780000000     0.486090000000    -0.438143   
O47      O      0.487130000000     0.023790000000     0.423290000000    -0.43811    
O48      O      0.486930000000     0.023770000000     0.549240000000    -0.438122   


