data_structure

_audit_creation_method RASPA-1.0
_audit_creation_date 2023-5-19
_audit_author_name 'Poobodin Mano'

_cell_length_a    39.0252
_cell_length_b    39.0141
_cell_length_c    39.0012
_cell_angle_alpha 89.997
_cell_angle_beta  89.997
_cell_angle_gamma 89.997
_cell_volume      59380.6

_symmetry_cell_setting          triclinic
_symmetry_space_group_name_Hall 'P 1'
_symmetry_space_group_name_H-M  'P 1'
_symmetry_Int_Tables_number     1

_symmetry_equiv_pos_as_xyz 'x,y,z'

loop_
_atom_site_label
_atom_site_type_symbol
_atom_site_fract_x
_atom_site_fract_y
_atom_site_fract_z
_atom_site_charge
C1       C      0.010110000000     0.947030000000     0.512050000000     0.387468   
C2       C      0.013030000000     0.077620000000     0.512110000000     0.38711    
C3       C      0.946270000000     0.013930000000     0.512990000000     0.386819   
C4       C      0.076870000000     0.010710000000     0.511180000000     0.386593   
C5       C      0.011440000000     0.512230000000     0.577640000000     0.38772    
C6       C      0.012200000000     0.512470000000     0.447010000000     0.38754    
C7       C      0.011330000000     0.577660000000     0.512420000000     0.387284   
C8       C      0.012280000000     0.447030000000     0.512240000000     0.387353   
C9       C      0.512740000000     0.012140000000     0.446980000000     0.386924   
C10      C      0.510390000000     0.012000000000     0.577620000000     0.386798   
C11      C      0.446280000000     0.010160000000     0.511130000000     0.386233   
C12      C      0.576850000000     0.014000000000     0.513460000000     0.386252   
C13      C      0.513280000000     0.077290000000     0.011980000000     0.385735   
C14      C      0.509770000000     0.946700000000     0.012490000000     0.386484   
C15      C      0.513020000000     0.012210000000     0.077590000000     0.386311   
C16      C      0.510020000000     0.011690000000     0.946980000000     0.386546   
C17      C      0.011250000000     0.512130000000     0.947010000000     0.387686   
C18      C      0.012930000000     0.512580000000     0.077630000000     0.387692   
C19      C      0.946790000000     0.513000000000     0.013220000000     0.387264   
C20      C      0.077400000000     0.511720000000     0.011420000000     0.387231   
C21      C      0.513500000000     0.446960000000     0.011870000000     0.386269   
C22      C      0.510750000000     0.577580000000     0.012870000000     0.386986   
C23      C      0.446820000000     0.511040000000     0.011380000000     0.38673    
C24      C      0.577400000000     0.513590000000     0.013370000000     0.386618   
C25      C      0.908830000000     0.513380000000     0.013780000000    -0.116636   
C26      C      0.890790000000     0.544570000000     0.012580000000     0.0301894  
C27      C      0.854980000000     0.544930000000     0.012980000000    -0.0733991  
C28      C      0.836380000000     0.514130000000     0.014700000000     0.0327283  
C29      C      0.854390000000     0.482960000000     0.016010000000    -0.0732987  
C30      C      0.890190000000     0.482580000000     0.015510000000     0.03029    
C31      C      0.798310000000     0.514510000000     0.014940000000    -0.00128887 
C32      C      0.780100000000     0.536570000000     0.993020000000    -0.0370053  
C33      C      0.744300000000     0.536710000000     0.992990000000    -0.0370827  
C34      C      0.725880000000     0.514860000000     0.014940000000    -0.00125136 
C35      C      0.744090000000     0.492940000000     0.037000000000    -0.0370794  
C36      C      0.779900000000     0.492720000000     0.036950000000    -0.0371072  
C37      C      0.687820000000     0.514750000000     0.014620000000     0.0324796  
C38      C      0.669820000000     0.516030000000     0.983440000000    -0.0731948  
C39      C      0.634020000000     0.515680000000     0.983050000000     0.0300245  
C40      C      0.615370000000     0.514140000000     0.013870000000    -0.116452   
C41      C      0.633370000000     0.512980000000     0.045080000000     0.0299839  
C42      C      0.669190000000     0.513230000000     0.045440000000    -0.0731403  
C43      C      0.115370000000     0.511340000000     0.010870000000    -0.116496   
C44      C      0.133410000000     0.480140000000     0.011830000000     0.0300911  
C45      C      0.169210000000     0.479790000000     0.011440000000    -0.0732939  
C46      C      0.187820000000     0.510600000000     0.009990000000     0.0326766  
C47      C      0.169810000000     0.541780000000     0.008930000000    -0.0732859  
C48      C      0.134000000000     0.542160000000     0.009410000000     0.0301738  
C49      C      0.225890000000     0.510220000000     0.009770000000    -0.00129598 
C50      C      0.244090000000     0.487920000000     0.031450000000    -0.0371024  
C51      C      0.279890000000     0.487780000000     0.031500000000    -0.0371719  
C52      C      0.298330000000     0.509870000000     0.009790000000    -0.00128712 
C53      C      0.280130000000     0.532040000000     0.987980000000    -0.0370454  
C54      C      0.244320000000     0.532250000000     0.988010000000    -0.0370164  
C55      C      0.336390000000     0.509960000000     0.010120000000     0.0325422  
C56      C      0.354390000000     0.508240000000     0.041280000000    -0.0733467  
C57      C      0.390190000000     0.508560000000     0.041670000000     0.030025   
C58      C      0.408850000000     0.510510000000     0.010880000000    -0.116561   
C59      C      0.390840000000     0.512120000000     0.979700000000     0.0301746  
C60      C      0.355020000000     0.511900000000     0.979320000000    -0.0732415  
C61      C      0.510040000000     0.615430000000     0.013100000000    -0.117227   
C62      C      0.494340000000     0.633280000000     0.040190000000     0.0311182  
C63      C      0.493410000000     0.669120000000     0.040180000000    -0.0739031  
C64      C      0.508900000000     0.687660000000     0.013530000000     0.0329612  
C65      C      0.524900000000     0.669910000000     0.986640000000    -0.0739211  
C66      C      0.525100000000     0.634090000000     0.986200000000     0.0312386  
C67      C      0.508650000000     0.725500000000     0.013850000000    -0.00129303 
C68      C      0.477570000000     0.743530000000     0.013780000000    -0.0377066  
C69      C      0.477410000000     0.779370000000     0.013250000000    -0.0366137  
C70      C      0.508380000000     0.797980000000     0.013550000000    -0.00128211 
C71      C      0.539470000000     0.779570000000     0.014260000000    -0.0366807  
C72      C      0.539570000000     0.743760000000     0.013980000000    -0.0377317  
C73      C      0.508360000000     0.836280000000     0.012970000000     0.0324507  
C74      C      0.481980000000     0.855120000000     0.028910000000    -0.0726614  
C75      C      0.482090000000     0.890980000000     0.028270000000     0.0308059  
C76      C      0.508960000000     0.908850000000     0.012400000000    -0.117046   
C77      C      0.535380000000     0.890240000000     0.996600000000     0.0310329  
C78      C      0.534880000000     0.854440000000     0.996510000000    -0.0728435  
C79      C      0.514140000000     0.115290000000     0.011700000000    -0.115936   
C80      C      0.483500000000     0.134200000000     0.010200000000     0.0296103  
C81      C      0.484150000000     0.170000000000     0.009820000000    -0.0732807  
C82      C      0.515450000000     0.187790000000     0.011030000000     0.0324118  
C83      C      0.546100000000     0.168920000000     0.012640000000    -0.0730222  
C84      C      0.545470000000     0.133070000000     0.012910000000     0.029661   
C85      C      0.516000000000     0.225880000000     0.010660000000    -0.00127278 
C86      C      0.494130000000     0.244270000000     0.988690000000    -0.0370225  
C87      C      0.494230000000     0.280080000000     0.988650000000    -0.037109   
C88      C      0.516120000000     0.298370000000     0.010670000000    -0.00120536 
C89      C      0.538090000000     0.279990000000     0.032550000000    -0.0371448  
C90      C      0.538080000000     0.244150000000     0.032490000000    -0.0371457  
C91      C      0.515810000000     0.336470000000     0.010960000000     0.0323983  
C92      C      0.517020000000     0.354570000000     0.042100000000    -0.0730409  
C93      C      0.516260000000     0.390390000000     0.042410000000     0.0298131  
C94      C      0.514380000000     0.408970000000     0.011560000000    -0.116091   
C95      C      0.513340000000     0.390850000000     0.980410000000     0.0300228  
C96      C      0.513990000000     0.355030000000     0.980120000000    -0.0730078  
C97      C      0.509740000000     0.011930000000     0.615500000000    -0.116909   
C98      C      0.493900000000     0.038710000000     0.633560000000     0.0309384  
C99      C      0.492930000000     0.038420000000     0.669400000000    -0.0726178  
C100     C      0.508540000000     0.011750000000     0.688110000000     0.0324781  
C101     C      0.524750000000     0.985170000000     0.669780000000    -0.0726329  
C102     C      0.524970000000     0.985070000000     0.633940000000     0.0310698  
C103     C      0.508020000000     0.011670000000     0.726450000000    -0.00129713 
C104     C      0.508540000000     0.042660000000     0.745050000000    -0.0365324  
C105     C      0.508000000000     0.042540000000     0.780900000000    -0.0376729  
C106     C      0.507730000000     0.011490000000     0.798970000000    -0.00129729 
C107     C      0.507450000000     0.980540000000     0.780740000000    -0.0376462  
C108     C      0.507180000000     0.980600000000     0.744900000000    -0.0365095  
C109     C      0.508120000000     0.011380000000     0.836840000000     0.0329342  
C110     C      0.481580000000     0.027040000000     0.855390000000    -0.073784   
C111     C      0.481900000000     0.026710000000     0.891260000000     0.0310366  
C112     C      0.509240000000     0.011470000000     0.909110000000    -0.116953   
C113     C      0.535960000000     0.996130000000     0.890440000000     0.0311779  
C114     C      0.535180000000     0.995720000000     0.854600000000    -0.0738045  
C115     C      0.513800000000     0.012430000000     0.115470000000    -0.116829   
C116     C      0.487380000000     0.028290000000     0.134130000000     0.0308686  
C117     C      0.488170000000     0.028700000000     0.169970000000    -0.0737708  
C118     C      0.514930000000     0.012550000000     0.187740000000     0.032801   
C119     C      0.541170000000     0.996370000000     0.169200000000    -0.0736644  
C120     C      0.540840000000     0.996680000000     0.133330000000     0.0308076  
C121     C      0.515340000000     0.012470000000     0.225620000000    -0.00126467 
C122     C      0.515760000000     0.043440000000     0.243820000000    -0.0377433  
C123     C      0.516050000000     0.043410000000     0.279670000000    -0.036602   
C124     C      0.515070000000     0.012360000000     0.298140000000    -0.00127293 
C125     C      0.514400000000     0.981360000000     0.279580000000    -0.0364958  
C126     C      0.514930000000     0.981440000000     0.243730000000    -0.037614   
C127     C      0.514570000000     0.012330000000     0.336480000000     0.0324815  
C128     C      0.498460000000     0.038980000000     0.354790000000    -0.0727334  
C129     C      0.498260000000     0.039110000000     0.390640000000     0.030953   
C130     C      0.513390000000     0.012200000000     0.409100000000    -0.11692    
C131     C      0.529140000000     0.985360000000     0.391050000000     0.0310003  
C132     C      0.530090000000     0.985620000000     0.355200000000    -0.0725459  
C133     C      0.011230000000     0.512120000000     0.615610000000    -0.117151   
C134     C      0.042130000000     0.510820000000     0.634100000000     0.0306287  
C135     C      0.041940000000     0.510640000000     0.669910000000    -0.0736069  
C136     C      0.010850000000     0.511880000000     0.688060000000     0.0328375  
C137     C      0.979950000000     0.513230000000     0.669600000000    -0.073482   
C138     C      0.980130000000     0.513300000000     0.633780000000     0.0306445  
C139     C      0.010670000000     0.511770000000     0.726110000000    -0.00131845 
C140     C      0.032550000000     0.489800000000     0.744460000000    -0.0371137  
C141     C      0.032420000000     0.489740000000     0.780280000000    -0.0370698  
C142     C      0.010490000000     0.511730000000     0.798540000000    -0.0013526  
C143     C      0.988610000000     0.533700000000     0.780190000000    -0.0370055  
C144     C      0.988650000000     0.533680000000     0.744370000000    -0.0370395  
C145     C      0.010510000000     0.511810000000     0.836590000000     0.0329209  
C146     C      0.009320000000     0.542860000000     0.854810000000    -0.0735601  
C147     C      0.009550000000     0.542970000000     0.890630000000     0.0304835  
C148     C      0.010880000000     0.512010000000     0.909040000000    -0.116986   
C149     C      0.011970000000     0.480950000000     0.890800000000     0.0305521  
C150     C      0.011840000000     0.480860000000     0.854970000000    -0.0735262  
C151     C      0.013250000000     0.512700000000     0.115600000000    -0.116975   
C152     C      0.014520000000     0.481730000000     0.134010000000     0.0304617  
C153     C      0.014680000000     0.481830000000     0.169830000000    -0.0735849  
C154     C      0.013470000000     0.512880000000     0.188050000000     0.0329049  
C155     C      0.012220000000     0.543840000000     0.169680000000    -0.0734975  
C156     C      0.012160000000     0.543760000000     0.133850000000     0.0305041  
C157     C      0.013420000000     0.512950000000     0.226110000000    -0.0013569  
C158     C      0.035230000000     0.490950000000     0.244490000000    -0.0370791  
C159     C      0.035120000000     0.490960000000     0.280310000000    -0.0371404  
C160     C      0.013100000000     0.512900000000     0.298530000000    -0.00130955 
C161     C      0.991280000000     0.534890000000     0.280150000000    -0.0370386  
C162     C      0.991480000000     0.534960000000     0.244330000000    -0.0369833  
C163     C      0.012870000000     0.512800000000     0.336590000000     0.0328089  
C164     C      0.043750000000     0.511390000000     0.355070000000    -0.0735054  
C165     C      0.043540000000     0.511330000000     0.390890000000     0.030479   
C166     C      0.012430000000     0.512570000000     0.409040000000    -0.117003   
C167     C      0.981540000000     0.513930000000     0.390520000000     0.0305618  
C168     C      0.981770000000     0.514100000000     0.354700000000    -0.0734647  
C169     C      0.114830000000     0.009650000000     0.510660000000    -0.116284   
C170     C      0.132780000000     0.010500000000     0.479400000000     0.0300559  
C171     C      0.168580000000     0.009640000000     0.478920000000    -0.0732625  
C172     C      0.187280000000     0.007810000000     0.509670000000     0.0326273  
C173     C      0.169350000000     0.006800000000     0.540920000000    -0.0732372  
C174     C      0.133550000000     0.007760000000     0.541410000000     0.0300871  
C175     C      0.225350000000     0.007310000000     0.509190000000    -0.0012471  
C176     C      0.243620000000     0.029050000000     0.487010000000    -0.0371077  
C177     C      0.279420000000     0.029060000000     0.486960000000    -0.0371147  
C178     C      0.297800000000     0.007260000000     0.509000000000    -0.00123276 
C179     C      0.279530000000     0.985280000000     0.530960000000    -0.0370558  
C180     C      0.243710000000     0.985360000000     0.531100000000    -0.0370168  
C181     C      0.335860000000     0.007840000000     0.509410000000     0.0324907  
C182     C      0.353600000000     0.039150000000     0.508120000000    -0.0733153  
C183     C      0.389380000000     0.039850000000     0.508690000000     0.0299128  
C184     C      0.408310000000     0.009240000000     0.510480000000    -0.116299   
C185     C      0.390580000000     0.977880000000     0.511720000000     0.0299814  
C186     C      0.354750000000     0.977200000000     0.511260000000    -0.0729695  
C187     C      0.614820000000     0.014940000000     0.514070000000    -0.116352   
C188     C      0.632530000000     0.046300000000     0.512770000000     0.0299975  
C189     C      0.668360000000     0.047010000000     0.513170000000    -0.0730873  
C190     C      0.687270000000     0.016390000000     0.515010000000     0.0325127  
C191     C      0.669550000000     0.985060000000     0.516380000000    -0.073291   
C192     C      0.633770000000     0.984340000000     0.515870000000     0.0300179  
C193     C      0.725330000000     0.017000000000     0.515350000000    -0.00119875 
C194     C      0.743530000000     0.038960000000     0.493330000000    -0.0371205  
C195     C      0.779360000000     0.038940000000     0.493140000000    -0.0370595  
C196     C      0.797780000000     0.017050000000     0.515060000000    -0.00124255 
C197     C      0.779570000000     0.995320000000     0.537290000000    -0.0369811  
C198     C      0.743770000000     0.995250000000     0.537400000000    -0.0371008  
C199     C      0.835850000000     0.016640000000     0.514550000000     0.0326205  
C200     C      0.854570000000     0.014910000000     0.545300000000    -0.0732389  
C201     C      0.890370000000     0.014120000000     0.544800000000     0.0300521  
C202     C      0.908300000000     0.014950000000     0.513530000000    -0.116227   
C203     C      0.889570000000     0.016740000000     0.482780000000     0.0299968  
C204     C      0.853760000000     0.017630000000     0.483300000000    -0.0731442  
C205     C      0.011040000000     0.615630000000     0.512410000000    -0.116871   
C206     C      0.041880000000     0.634200000000     0.510980000000     0.0304237  
C207     C      0.041580000000     0.670020000000     0.510870000000    -0.0734161  
C208     C      0.010440000000     0.688080000000     0.512290000000     0.0327202  
C209     C      0.979610000000     0.669520000000     0.513790000000    -0.0734124  
C210     C      0.979900000000     0.633710000000     0.513800000000     0.0304535  
C211     C      0.010130000000     0.726130000000     0.512180000000    -0.00129331 
C212     C      0.031850000000     0.744550000000     0.490110000000    -0.0370943  
C213     C      0.031540000000     0.780360000000     0.489980000000    -0.0371002  
C214     C      0.009580000000     0.798550000000     0.512010000000    -0.00129358 
C215     C      0.987890000000     0.780140000000     0.534110000000    -0.0370605  
C216     C      0.988110000000     0.744320000000     0.534150000000    -0.0370485  
C217     C      0.009410000000     0.836610000000     0.512010000000     0.0328331  
C218     C      0.010610000000     0.854920000000     0.481000000000    -0.0734407  
C219     C      0.010660000000     0.890740000000     0.481000000000     0.0304617  
C220     C      0.009620000000     0.909060000000     0.512020000000    -0.116788   
C221     C      0.008350000000     0.890720000000     0.543040000000     0.0303532  
C222     C      0.008190000000     0.854910000000     0.543020000000    -0.0734882  
C223     C      0.013560000000     0.115590000000     0.512100000000    -0.116595   
C224     C      0.015250000000     0.133920000000     0.543100000000     0.0302691  
C225     C      0.015440000000     0.169740000000     0.543080000000    -0.0732879  
C226     C      0.013870000000     0.188050000000     0.512080000000     0.0327548  
C227     C      0.012260000000     0.169740000000     0.481090000000    -0.0734381  
C228     C      0.012150000000     0.133930000000     0.481090000000     0.0302689  
C229     C      0.013740000000     0.226110000000     0.512070000000    -0.00129353 
C230     C      0.035630000000     0.244520000000     0.533970000000    -0.0371204  
C231     C      0.035470000000     0.280340000000     0.533960000000    -0.0371411  
C232     C      0.013320000000     0.298540000000     0.512130000000    -0.0012418  
C233     C      0.991410000000     0.280130000000     0.490250000000    -0.0370565  
C234     C      0.991650000000     0.244320000000     0.490190000000    -0.0369659  
C235     C      0.013060000000     0.336610000000     0.512180000000     0.0326755  
C236     C      0.043920000000     0.355130000000     0.513560000000    -0.0733893  
C237     C      0.043680000000     0.390940000000     0.513540000000     0.0302554  
C238     C      0.012550000000     0.409060000000     0.512210000000    -0.116775   
C239     C      0.981680000000     0.390510000000     0.510880000000     0.0304046  
C240     C      0.981950000000     0.354700000000     0.510820000000    -0.0732536  
H1       H      0.904300000000     0.568790000000     0.011310000000     0.033723   
H2       H      0.841870000000     0.569390000000     0.012350000000     0.0476475  
H3       H      0.840790000000     0.458770000000     0.016930000000     0.0478065  
H4       H      0.903230000000     0.458090000000     0.016420000000     0.0338773  
H5       H      0.793530000000     0.553450000000     0.975530000000     0.0380202  
H6       H      0.731030000000     0.554140000000     0.975930000000     0.0379441  
H7       H      0.730650000000     0.475580000000     0.054000000000     0.038121   
H8       H      0.793180000000     0.475660000000     0.054370000000     0.0381338  
H9       H      0.683420000000     0.516790000000     0.959240000000     0.0476685  
H10      H      0.621020000000     0.516540000000     0.958540000000     0.0337734  
H11      H      0.619840000000     0.511850000000     0.069290000000     0.0338661  
H12      H      0.682320000000     0.512610000000     0.069910000000     0.0476818  
H13      H      0.119900000000     0.455920000000     0.012890000000     0.0337458  
H14      H      0.182330000000     0.455320000000     0.011870000000     0.0476196  
H15      H      0.183400000000     0.565970000000     0.008220000000     0.0477678  
H16      H      0.120970000000     0.566650000000     0.008690000000     0.0338802  
H17      H      0.230660000000     0.470860000000     0.048750000000     0.0380566  
H18      H      0.293150000000     0.470160000000     0.048360000000     0.0380842  
H19      H      0.293580000000     0.549590000000     0.971180000000     0.0381152  
H20      H      0.231050000000     0.549500000000     0.970760000000     0.0381219  
H21      H      0.340800000000     0.507160000000     0.065470000000     0.0476712  
H22      H      0.403200000000     0.507350000000     0.066170000000     0.0338044  
H23      H      0.404380000000     0.513590000000     0.955500000000     0.0338824  
H24      H      0.341910000000     0.512850000000     0.954870000000     0.0477628  
H25      H      0.482410000000     0.619530000000     0.061160000000     0.0320319  
H26      H      0.481030000000     0.682390000000     0.061200000000     0.0487907  
H27      H      0.536930000000     0.683790000000     0.965810000000     0.0486692  
H28      H      0.537490000000     0.620990000000     0.965080000000     0.0319335  
H29      H      0.453420000000     0.729840000000     0.013430000000     0.0391596  
H30      H      0.452950000000     0.792380000000     0.012030000000     0.0376729  
H31      H      0.563860000000     0.792710000000     0.015380000000     0.037521   
H32      H      0.563840000000     0.730270000000     0.014360000000     0.0390918  
H33      H      0.461440000000     0.842300000000     0.042440000000     0.0472565  
H34      H      0.461530000000     0.904730000000     0.040900000000     0.0320774  
H35      H      0.556230000000     0.903380000000     0.983800000000     0.0315692  
H36      H      0.555210000000     0.841110000000     0.983150000000     0.0469953  
H37      H      0.458890000000     0.121400000000     0.009310000000     0.0337151  
H38      H      0.460070000000     0.183780000000     0.009020000000     0.0475214  
H39      H      0.570640000000     0.181860000000     0.013250000000     0.0478027  
H40      H      0.569560000000     0.119330000000     0.014040000000     0.0340884  
H41      H      0.477060000000     0.230960000000     0.971300000000     0.0380013  
H42      H      0.476780000000     0.293460000000     0.971710000000     0.0381189  
H43      H      0.555500000000     0.293320000000     0.049580000000     0.0380803  
H44      H      0.555030000000     0.230750000000     0.049920000000     0.0380999  
H45      H      0.518020000000     0.341020000000     0.066330000000     0.0475786  
H46      H      0.517070000000     0.403490000000     0.066880000000     0.0338043  
H47      H      0.511980000000     0.404300000000     0.956150000000     0.0339556  
H48      H      0.513430000000     0.341850000000     0.955680000000     0.047712   
H49      H      0.481650000000     0.059590000000     0.619960000000     0.0319865  
H50      H      0.479510000000     0.058980000000     0.682320000000     0.0471862  
H51      H      0.537780000000     0.964560000000     0.683010000000     0.0471039  
H52      H      0.537680000000     0.964250000000     0.620660000000     0.031829   
H53      H      0.509950000000     0.067130000000     0.732050000000     0.0376631  
H54      H      0.508510000000     0.066720000000     0.794560000000     0.0392401  
H55      H      0.506970000000     0.956290000000     0.794280000000     0.0391502  
H56      H      0.505940000000     0.956200000000     0.731760000000     0.0375812  
H57      H      0.460440000000     0.039200000000     0.842110000000     0.048738   
H58      H      0.461060000000     0.038850000000     0.905010000000     0.0318918  
H59      H      0.557260000000     0.984060000000     0.903540000000     0.0316238  
H60      H      0.555950000000     0.983580000000     0.840720000000     0.0486604  
H61      H      0.466310000000     0.040750000000     0.121030000000     0.0321416  
H62      H      0.467630000000     0.041240000000     0.183840000000     0.0486745  
H63      H      0.562080000000     0.983830000000     0.182480000000     0.048784   
H64      H      0.561450000000     0.984140000000     0.119590000000     0.0322674  
H65      H      0.516350000000     0.067680000000     0.230270000000     0.0391016  
H66      H      0.517400000000     0.067820000000     0.292780000000     0.0375571  
H67      H      0.512890000000     0.956920000000     0.292610000000     0.0376935  
H68      H      0.514300000000     0.957250000000     0.230100000000     0.0391933  
H69      H      0.485500000000     0.059620000000     0.341550000000     0.0471217  
H70      H      0.485620000000     0.059970000000     0.403910000000     0.0318563  
H71      H      0.541330000000     0.964440000000     0.404650000000     0.0320327  
H72      H      0.543440000000     0.965000000000     0.342300000000     0.0472117  
H73      H      0.066560000000     0.509940000000     0.620940000000     0.0337391  
H74      H      0.066180000000     0.510000000000     0.683410000000     0.0478487  
H75      H      0.955570000000     0.513810000000     0.682860000000     0.0478188  
H76      H      0.955840000000     0.514260000000     0.620370000000     0.0337244  
H77      H      0.049570000000     0.472400000000     0.731120000000     0.0381443  
H78      H      0.049800000000     0.472740000000     0.793680000000     0.0381584  
H79      H      0.971190000000     0.550710000000     0.793530000000     0.0380708  
H80      H      0.971710000000     0.551120000000     0.730970000000     0.0380757  
H81      H      0.008690000000     0.567150000000     0.841370000000     0.0477462  
H82      H      0.008750000000     0.567370000000     0.903850000000     0.0336951  
H83      H      0.012940000000     0.456620000000     0.904140000000     0.033829   
H84      H      0.012370000000     0.456500000000     0.841660000000     0.0478714  
H85      H      0.015330000000     0.457330000000     0.120790000000     0.0336929  
H86      H      0.015260000000     0.457540000000     0.183260000000     0.0477629  
H87      H      0.011670000000     0.568200000000     0.183000000000     0.0478263  
H88      H      0.011230000000     0.568090000000     0.120510000000     0.0338114  
H89      H      0.052660000000     0.473920000000     0.231180000000     0.0380633  
H90      H      0.052010000000     0.473490000000     0.293740000000     0.0381101  
H91      H      0.974250000000     0.552320000000     0.293460000000     0.0381693  
H92      H      0.974140000000     0.551990000000     0.230900000000     0.0381674  
H93      H      0.068150000000     0.510780000000     0.341840000000     0.047789   
H94      H      0.067810000000     0.510330000000     0.404320000000     0.0337782  
H95      H      0.957100000000     0.514850000000     0.403660000000     0.0337751  
H96      H      0.957540000000     0.514790000000     0.341180000000     0.0478228  
H97      H      0.119210000000     0.011860000000     0.455210000000     0.0338308  
H98      H      0.181620000000     0.010050000000     0.454410000000     0.0477163  
H99      H      0.183010000000     0.005820000000     0.565070000000     0.0477575  
H100     H      0.120590000000     0.007090000000     0.565960000000     0.0338638  
H101     H      0.230250000000     0.046490000000     0.470040000000     0.0381023  
H102     H      0.292730000000     0.046040000000     0.469480000000     0.0380399  
H103     H      0.292930000000     0.968400000000     0.548450000000     0.0382416  
H104     H      0.230380000000     0.968060000000     0.548240000000     0.0381924  
H105     H      0.339810000000     0.063230000000     0.507150000000     0.0475884  
H106     H      0.402160000000     0.064480000000     0.507770000000     0.0337051  
H107     H      0.404340000000     0.953810000000     0.513060000000     0.034045   
H108     H      0.341830000000     0.952640000000     0.511930000000     0.04784    
H109     H      0.618750000000     0.070370000000     0.511420000000     0.0340278  
H110     H      0.681260000000     0.071580000000     0.512440000000     0.0478467  
H111     H      0.683360000000     0.961000000000     0.517350000000     0.0476267  
H112     H      0.621010000000     0.959700000000     0.516840000000     0.0336856  
H113     H      0.730090000000     0.055810000000     0.475830000000     0.0382001  
H114     H      0.792640000000     0.056240000000     0.475950000000     0.0381195  
H115     H      0.792990000000     0.977930000000     0.554270000000     0.0380776  
H116     H      0.730510000000     0.978280000000     0.554910000000     0.0380665  
H117     H      0.841550000000     0.014510000000     0.569820000000     0.0477255  
H118     H      0.903960000000     0.012830000000     0.568980000000     0.0338591  
H119     H      0.902510000000     0.017390000000     0.458230000000     0.0338684  
H120     H      0.840080000000     0.018540000000     0.459150000000     0.0477288  
H121     H      0.066340000000     0.621120000000     0.509950000000     0.0338416  
H122     H      0.065780000000     0.683580000000     0.510100000000     0.0478638  
H123     H      0.955190000000     0.682690000000     0.514500000000     0.0477368  
H124     H      0.955650000000     0.620240000000     0.514860000000     0.0336915  
H125     H      0.048870000000     0.731280000000     0.472650000000     0.0381982  
H126     H      0.048790000000     0.793810000000     0.472890000000     0.0382213  
H127     H      0.970460000000     0.793410000000     0.551160000000     0.0380665  
H128     H      0.971300000000     0.730870000000     0.551680000000     0.0380599  
H129     H      0.011140000000     0.841560000000     0.456660000000     0.0478402  
H130     H      0.011590000000     0.904020000000     0.456620000000     0.0338539  
H131     H      0.007580000000     0.904000000000     0.567420000000     0.0337144  
H132     H      0.007640000000     0.841540000000     0.567350000000     0.0477457  
H133     H      0.016300000000     0.120640000000     0.567470000000     0.0338824  
H134     H      0.016300000000     0.183110000000     0.567410000000     0.0477933  
H135     H      0.011460000000     0.183100000000     0.456760000000     0.0476909  
H136     H      0.010910000000     0.120650000000     0.456730000000     0.0337574  
H137     H      0.053170000000     0.231250000000     0.550900000000     0.0381097  
H138     H      0.052430000000     0.293780000000     0.551340000000     0.0381016  
H139     H      0.974280000000     0.293400000000     0.472890000000     0.038134   
H140     H      0.974230000000     0.230880000000     0.473250000000     0.0381103  
H141     H      0.068330000000     0.341930000000     0.514220000000     0.0476794  
H142     H      0.067930000000     0.404390000000     0.514520000000     0.0337279  
H143     H      0.957240000000     0.403620000000     0.509910000000     0.0338931  
H144     H      0.957720000000     0.341170000000     0.510150000000     0.047814   
Ni1      Ni     0.011990000000     0.012290000000     0.542670000000     0.993956   
Ni2      Ni     0.011150000000     0.012360000000     0.481500000000     0.994019   
Ni3      Ni     0.042380000000     0.512550000000     0.512500000000     0.995176   
Ni4      Ni     0.981240000000     0.512130000000     0.512150000000     0.995259   
Ni5      Ni     0.512560000000     0.981500000000     0.512290000000     0.993226   
Ni6      Ni     0.510570000000     0.042660000000     0.512300000000     0.992744   
Ni7      Ni     0.480950000000     0.012880000000     0.013030000000     0.992244   
Ni8      Ni     0.542090000000     0.011040000000     0.011540000000     0.992771   
Ni9      Ni     0.011810000000     0.481780000000     0.012440000000     0.994789   
Ni10     Ni     0.012380000000     0.542940000000     0.012200000000     0.994534   
Ni11     Ni     0.511600000000     0.512050000000     0.042970000000     0.992902   
Ni12     Ni     0.512610000000     0.512560000000     0.981790000000     0.99396    
O1       O      0.010770000000     0.963240000000     0.540620000000    -0.439196   
O2       O      0.013150000000     0.061360000000     0.540670000000    -0.438826   
O3       O      0.962900000000     0.013510000000     0.541330000000    -0.438561   
O4       O      0.061020000000     0.011050000000     0.539970000000    -0.438556   
O5       O      0.060240000000     0.011250000000     0.482840000000    -0.438574   
O6       O      0.962110000000     0.013490000000     0.484210000000    -0.438619   
O7       O      0.012240000000     0.061410000000     0.483540000000    -0.439176   
O8       O      0.010120000000     0.963290000000     0.483500000000    -0.438997   
O9       O      0.040070000000     0.512490000000     0.561560000000    -0.439596   
O10      O      0.040650000000     0.512550000000     0.463410000000    -0.439453   
O11      O      0.040000000000     0.561620000000     0.512490000000    -0.438948   
O12      O      0.040710000000     0.463470000000     0.512480000000    -0.439318   
O13      O      0.983620000000     0.463070000000     0.512020000000    -0.4391     
O14      O      0.982910000000     0.561210000000     0.512300000000    -0.439301   
O15      O      0.983550000000     0.512300000000     0.463080000000    -0.439262   
O16      O      0.982980000000     0.512030000000     0.561240000000    -0.439359   
O17      O      0.513550000000     0.983570000000     0.463160000000    -0.43764    
O18      O      0.511780000000     0.983470000000     0.561410000000    -0.43789    
O19      O      0.463360000000     0.982080000000     0.511430000000    -0.437297   
O20      O      0.561460000000     0.984990000000     0.513180000000    -0.43959    
O21      O      0.559770000000     0.042080000000     0.513170000000    -0.437326   
O22      O      0.461670000000     0.039170000000     0.511410000000    -0.439605   
O23      O      0.509580000000     0.040580000000     0.561440000000    -0.437425   
O24      O      0.511350000000     0.040680000000     0.463180000000    -0.437925   
O25      O      0.484320000000     0.061820000000     0.012370000000    -0.439262   
O26      O      0.481650000000     0.963650000000     0.013720000000    -0.436553   
O27      O      0.484120000000     0.013540000000     0.062060000000    -0.438047   
O28      O      0.481830000000     0.012430000000     0.963820000000    -0.437041   
O29      O      0.538950000000     0.011110000000     0.962510000000    -0.438064   
O30      O      0.541190000000     0.010730000000     0.060750000000    -0.437092   
O31      O      0.538730000000     0.962100000000     0.011240000000    -0.439      
O32      O      0.541400000000     0.060260000000     0.011760000000    -0.437041   
O33      O      0.011190000000     0.483630000000     0.963350000000    -0.439222   
O34      O      0.012490000000     0.483970000000     0.061500000000    -0.439561   
O35      O      0.962760000000     0.484290000000     0.013110000000    -0.438815   
O36      O      0.060890000000     0.483330000000     0.011770000000    -0.439142   
O37      O      0.061440000000     0.540430000000     0.011540000000    -0.438787   
O38      O      0.963300000000     0.541390000000     0.012860000000    -0.439062   
O39      O      0.012990000000     0.541080000000     0.061290000000    -0.439267   
O40      O      0.011710000000     0.540740000000     0.963140000000    -0.439491   
O41      O      0.513040000000     0.462980000000     0.040560000000    -0.43825    
O42      O      0.510090000000     0.561170000000     0.041320000000    -0.437676   
O43      O      0.462630000000     0.510720000000     0.040180000000    -0.439233   
O44      O      0.560720000000     0.513410000000     0.041690000000    -0.438132   
O45      O      0.561600000000     0.513170000000     0.984570000000    -0.439209   
O46      O      0.463480000000     0.511950000000     0.983070000000    -0.438337   
O47      O      0.512110000000     0.561630000000     0.984180000000    -0.438222   
O48      O      0.513210000000     0.463440000000     0.983430000000    -0.438147   


