data_structure

_audit_creation_method RASPA-1.0
_audit_creation_date 2023-5-19
_audit_author_name 'Poobodin Mano'

_cell_length_a    21.1934
_cell_length_b    19.3234
_cell_length_c    21.0182
_cell_angle_alpha 89.997
_cell_angle_beta  89.997
_cell_angle_gamma 89.997
_cell_volume      8607.55

_symmetry_cell_setting          triclinic
_symmetry_space_group_name_Hall 'P 1'
_symmetry_space_group_name_H-M  'P 1'
_symmetry_Int_Tables_number     1

_symmetry_equiv_pos_as_xyz 'x,y,z'

loop_
_atom_site_label
_atom_site_type_symbol
_atom_site_fract_x
_atom_site_fract_y
_atom_site_fract_z
_atom_site_charge
C1       C      0.981500000000     0.929030000000     0.436870000000     0.432538   
C2       C      0.997800000000     0.151420000000     0.564910000000     0.433342   
C3       C      0.110140000000     0.034890000000     0.494410000000     0.426291   
C4       C      0.869740000000     0.047570000000     0.506900000000     0.426476   
C5       C      0.993620000000     0.562730000000     0.621360000000     0.428404   
C6       C      0.986700000000     0.514160000000     0.383220000000     0.429492   
C7       C      0.986900000000     0.669260000000     0.476150000000     0.426531   
C8       C      0.993790000000     0.410960000000     0.527480000000     0.427345   
C9       C      0.486260000000     0.033240000000     0.379160000000     0.42755    
C10      C      0.495640000000     0.065020000000     0.619410000000     0.428955   
C11      C      0.369360000000     0.050020000000     0.504850000000     0.426565   
C12      C      0.610020000000     0.046630000000     0.494920000000     0.425953   
C13      C      0.500670000000     0.173220000000     0.024960000000     0.426598   
C14      C      0.500460000000     0.914890000000     0.973410000000     0.426774   
C15      C      0.502220000000     0.018210000000     0.119060000000     0.428445   
C16      C      0.499150000000     0.066710000000     0.880790000000     0.428592   
C17      C      0.998750000000     0.559250000000     0.883280000000     0.428728   
C18      C      0.001630000000     0.528130000000     0.123750000000     0.428349   
C19      C      0.881190000000     0.542860000000     0.005410000000     0.427985   
C20      C      0.121610000000     0.542750000000     0.003080000000     0.428543   
C21      C      0.501910000000     0.435810000000     0.056230000000     0.432666   
C22      C      0.501780000000     0.658420000000     0.927440000000     0.433798   
C23      C      0.621850000000     0.548440000000     0.991380000000     0.428314   
C24      C      0.381360000000     0.548360000000     0.990620000000     0.428211   
C25      C      0.722220000000     0.501000000000     0.952020000000    -0.00935826 
C26      C      0.719360000000     0.613420000000     0.012400000000    -0.0100523  
C27      C      0.781760000000     0.480030000000     0.988000000000    -0.00932899 
C28      C      0.782510000000     0.595460000000     0.043600000000    -0.0101853  
C29      C      0.283610000000     0.611860000000     0.015000000000    -0.00994845 
C30      C      0.281080000000     0.505180000000     0.946630000000    -0.00950303 
C31      C      0.220710000000     0.590990000000     0.045050000000    -0.0105671  
C32      C      0.220930000000     0.481490000000     0.980150000000    -0.00968293 
C33      C      0.560970000000     0.808250000000     0.951100000000    -0.0103057  
C34      C      0.441040000000     0.808620000000     0.946410000000    -0.0105085  
C35      C      0.561240000000     0.758690000000     0.894140000000    -0.00778611 
C36      C      0.444860000000     0.758780000000     0.889710000000    -0.00835724 
C37      C      0.562980000000     0.336430000000     0.090270000000    -0.00730369 
C38      C      0.446470000000     0.336170000000     0.098960000000    -0.00845553 
C39      C      0.560770000000     0.282030000000     0.037320000000    -0.0105483  
C40      C      0.441410000000     0.281200000000     0.046500000000    -0.0106966  
C41      C      0.554150000000     0.037550000000     0.716120000000    -0.00912107 
C42      C      0.471330000000     0.130400000000     0.717180000000    -0.00876338 
C43      C      0.533790000000     0.014180000000     0.782200000000    -0.0107517  
C44      C      0.447490000000     0.104280000000     0.781810000000    -0.00908565 
C45      C      0.439050000000     0.987500000000     0.281450000000    -0.0108882  
C46      C      0.529400000000     0.073030000000     0.278360000000    -0.0076735  
C47      C      0.459530000000     0.960780000000     0.215380000000    -0.0099048  
C48      C      0.556340000000     0.035470000000     0.221010000000    -0.00945679 
C49      C      0.960920000000     0.508880000000     0.720090000000    -0.0103805  
C50      C      0.046720000000     0.599350000000     0.720110000000    -0.00922345 
C51      C      0.940850000000     0.531820000000     0.786340000000    -0.00924376 
C52      C      0.023720000000     0.624590000000     0.785470000000    -0.00918869 
C53      C      0.048940000000     0.483490000000     0.221480000000    -0.0110967  
C54      C      0.957450000000     0.567650000000     0.224180000000    -0.00765765 
C55      C      0.028290000000     0.455940000000     0.287020000000    -0.0096102  
C56      C      0.931100000000     0.530070000000     0.281880000000    -0.00916638 
C57      C      0.271650000000     0.001620000000     0.550740000000    -0.0109199  
C58      C      0.268010000000     0.108190000000     0.482290000000    -0.00992065 
C59      C      0.210280000000     0.975880000000     0.520450000000    -0.00995729 
C60      C      0.209300000000     0.080060000000     0.448730000000    -0.0099914  
C61      C      0.709040000000     0.982660000000     0.512570000000    -0.00927981 
C62      C      0.709510000000     0.098380000000     0.457350000000    -0.0104245  
C63      C      0.768950000000     0.002790000000     0.548590000000    -0.00996492 
C64      C      0.772860000000     0.115340000000     0.488820000000    -0.0101805  
C65      C      0.918250000000     0.828910000000     0.409400000000    -0.00725491 
C66      C      0.033540000000     0.828840000000     0.391790000000    -0.00890108 
C67      C      0.924670000000     0.776730000000     0.463960000000    -0.010542   
C68      C      0.043170000000     0.776820000000     0.446170000000    -0.0106449  
C69      C      0.936290000000     0.302550000000     0.550630000000    -0.0103232  
C70      C      0.056000000000     0.304260000000     0.544390000000    -0.0107187  
C71      C      0.941370000000     0.250650000000     0.605530000000    -0.00805267 
C72      C      0.057870000000     0.251560000000     0.598840000000    -0.00788638 
H1       H      0.728090000000     0.647920000000     0.970970000000     0.0368541  
H2       H      0.735080000000     0.524670000000     0.905560000000     0.0404571  
H3       H      0.810260000000     0.446560000000     0.955900000000     0.0407417  
H4       H      0.690780000000     0.643130000000     0.047370000000     0.0419686  
H5       H      0.810330000000     0.643990000000     0.048210000000     0.0422909  
H6       H      0.773630000000     0.575630000000     0.092460000000     0.0377887  
H7       H      0.694430000000     0.453210000000     0.942650000000     0.0403172  
H8       H      0.768940000000     0.449390000000     0.030890000000     0.0403869  
H9       H      0.268880000000     0.532910000000     0.901910000000     0.0405053  
H10      H      0.274600000000     0.649480000000     0.975990000000     0.0368262  
H11      H      0.193170000000     0.639010000000     0.053900000000     0.0432051  
H12      H      0.308640000000     0.458130000000     0.934000000000     0.0413166  
H13      H      0.192530000000     0.451690000000     0.945050000000     0.0424685  
H14      H      0.233080000000     0.446450000000     0.020310000000     0.0398009  
H15      H      0.311990000000     0.638960000000     0.051870000000     0.0424217  
H16      H      0.229880000000     0.566330000000     0.091960000000     0.0382438  
H17      H      0.430860000000     0.779110000000     0.990620000000     0.0467146  
H18      H      0.567660000000     0.778690000000     0.995950000000     0.04796    
H19      H      0.603480000000     0.724480000000     0.896290000000     0.0318704  
H20      H      0.400490000000     0.843840000000     0.937690000000     0.0432456  
H21      H      0.402540000000     0.724630000000     0.888850000000     0.0321235  
H22      H      0.444800000000     0.789150000000     0.844750000000     0.0379451  
H23      H      0.602260000000     0.843210000000     0.945530000000     0.0426872  
H24      H      0.564600000000     0.789250000000     0.849410000000     0.0370171  
H25      H      0.447670000000     0.310040000000     0.146090000000     0.0386573  
H26      H      0.568570000000     0.309930000000     0.136910000000     0.0378509  
H27      H      0.602760000000     0.248190000000     0.043380000000     0.0433354  
H28      H      0.404040000000     0.370150000000     0.098220000000     0.0327564  
H29      H      0.401310000000     0.246690000000     0.058990000000     0.0435927  
H30      H      0.430060000000     0.306670000000     0.000480000000     0.0457961  
H31      H      0.604760000000     0.370640000000     0.083690000000     0.03264    
H32      H      0.564770000000     0.307780000000     0.990200000000     0.0476975  
H33      H      0.505290000000     0.173590000000     0.724270000000     0.0412364  
H34      H      0.594940000000     0.073440000000     0.720580000000     0.0382825  
H35      H      0.576880000000     0.998300000000     0.808700000000     0.0422619  
H36      H      0.430260000000     0.150330000000     0.689720000000     0.0387199  
H37      H      0.430220000000     0.149490000000     0.809620000000     0.0380545  
H38      H      0.407450000000     0.067930000000     0.774560000000     0.0424923  
H39      H      0.570620000000     0.991370000000     0.689170000000     0.0407897  
H40      H      0.503100000000     0.967730000000     0.777590000000     0.0395803  
H41      H      0.501030000000     0.118390000000     0.262710000000     0.0435469  
H42      H      0.398210000000     0.022990000000     0.275170000000     0.0377294  
H43      H      0.416530000000     0.951840000000     0.186190000000     0.0419482  
H44      H      0.569700000000     0.092000000000     0.307580000000     0.0380737  
H45      H      0.585460000000     0.073070000000     0.193680000000     0.0417763  
H46      H      0.587380000000     0.992260000000     0.236630000000     0.0417322  
H47      H      0.422600000000     0.942680000000     0.310260000000     0.0406036  
H48      H      0.483210000000     0.909850000000     0.221370000000     0.0372269  
H49      H      0.087010000000     0.563090000000     0.726420000000     0.0424857  
H50      H      0.992080000000     0.462770000000     0.724330000000     0.0395941  
H51      H      0.924450000000     0.485430000000     0.813010000000     0.0409638  
H52      H      0.063460000000     0.644950000000     0.692540000000     0.0381937  
H53      H      0.065180000000     0.643880000000     0.812700000000     0.0389102  
H54      H      0.989900000000     0.668080000000     0.779310000000     0.0415136  
H55      H      0.917760000000     0.492570000000     0.693930000000     0.04224    
H56      H      0.900050000000     0.567760000000     0.782250000000     0.0385431  
H57      H      0.985210000000     0.613580000000     0.239510000000     0.0434617  
H58      H      0.089020000000     0.519880000000     0.228350000000     0.0379494  
H59      H      0.071170000000     0.446440000000     0.316260000000     0.0416273  
H60      H      0.916910000000     0.585710000000     0.194820000000     0.0375552  
H61      H      0.901970000000     0.567500000000     0.309390000000     0.0414996  
H62      H      0.900220000000     0.486600000000     0.266580000000     0.0414323  
H63      H      0.066490000000     0.439210000000     0.192610000000     0.0403038  
H64      H      0.004440000000     0.405190000000     0.280400000000     0.0372062  
H65      H      0.253770000000     0.143760000000     0.521340000000     0.0393223  
H66      H      0.260400000000     0.028190000000     0.596280000000     0.0386079  
H67      H      0.182500000000     0.948670000000     0.557700000000     0.0425965  
H68      H      0.295670000000     0.138360000000     0.446870000000     0.0416852  
H69      H      0.180050000000     0.125150000000     0.434150000000     0.0416023  
H70      H      0.223410000000     0.051480000000     0.405060000000     0.0400503  
H71      H      0.301070000000     0.955730000000     0.562480000000     0.0437261  
H72      H      0.221770000000     0.937360000000     0.482890000000     0.0375268  
H73      H      0.718310000000     0.078910000000     0.408360000000     0.0380695  
H74      H      0.721540000000     0.951800000000     0.469720000000     0.0404243  
H75      H      0.796220000000     0.954650000000     0.558020000000     0.0405072  
H76      H      0.682180000000     0.147280000000     0.453050000000     0.0422925  
H77      H      0.801740000000     0.145290000000     0.454280000000     0.0419227  
H78      H      0.764340000000     0.149390000000     0.530610000000     0.0368213  
H79      H      0.680170000000     0.949570000000     0.544670000000     0.0407646  
H80      H      0.756360000000     0.026630000000     0.595050000000     0.0401228  
H81      H      0.028640000000     0.800170000000     0.346160000000     0.0385303  
H82      H      0.909450000000     0.800430000000     0.364270000000     0.0375962  
H83      H      0.882840000000     0.742100000000     0.461900000000     0.043422   
H84      H      0.075680000000     0.862930000000     0.387420000000     0.0328446  
H85      H      0.082610000000     0.742090000000     0.432170000000     0.0434312  
H86      H      0.057670000000     0.804770000000     0.490010000000     0.0463113  
H87      H      0.876780000000     0.863120000000     0.417820000000     0.032395   
H88      H      0.923260000000     0.804310000000     0.510330000000     0.0480502  
H89      H      0.061960000000     0.277080000000     0.498180000000     0.0464978  
H90      H      0.926380000000     0.274700000000     0.505460000000     0.0473497  
H91      H      0.899280000000     0.216130000000     0.606000000000     0.0322968  
H92      H      0.097080000000     0.339380000000     0.550580000000     0.0435354  
H93      H      0.100100000000     0.217680000000     0.593930000000     0.0322272  
H94      H      0.062350000000     0.279600000000     0.644840000000     0.0380846  
H95      H      0.895280000000     0.336650000000     0.560910000000     0.0423592  
H96      H      0.941930000000     0.279250000000     0.651460000000     0.0374061  
N1       N      0.816860000000     0.542170000000     0.007400000000    -0.170653   
N2       N      0.686120000000     0.551050000000     0.990000000000    -0.1711     
N3       N      0.186020000000     0.541680000000     0.004640000000    -0.17057    
N4       N      0.317050000000     0.551550000000     0.988500000000    -0.171044   
N5       N      0.502970000000     0.717940000000     0.893420000000    -0.171987   
N6       N      0.500890000000     0.847050000000     0.954580000000    -0.169055   
N7       N      0.501170000000     0.242310000000     0.039720000000    -0.168723   
N8       N      0.504360000000     0.376570000000     0.090680000000    -0.171533   
N9       N      0.498530000000     0.068660000000     0.816060000000    -0.170211   
N10      N      0.502590000000     0.073570000000     0.683240000000    -0.170871   
N11      N      0.503780000000     0.008130000000     0.183300000000    -0.170264   
N12      N      0.489500000000     0.025320000000     0.314910000000    -0.170353   
N13      N      0.992560000000     0.567550000000     0.819280000000    -0.170451   
N14      N      0.995390000000     0.563900000000     0.686140000000    -0.170003   
N15      N      0.984110000000     0.503190000000     0.319220000000    -0.17056    
N16      N      0.997980000000     0.520320000000     0.187910000000    -0.170481   
N17      N      0.174580000000     0.033140000000     0.491420000000    -0.170494   
N18      N      0.304980000000     0.050650000000     0.508790000000    -0.170087   
N19      N      0.805560000000     0.052360000000     0.510610000000    -0.170491   
N20      N      0.674450000000     0.045190000000     0.493020000000    -0.170124   
N21      N      0.984530000000     0.737720000000     0.459180000000    -0.168531   
N22      N      0.976310000000     0.869520000000     0.403100000000    -0.171446   
N23      N      0.999720000000     0.210640000000     0.599310000000    -0.171797   
N24      N      0.995470000000     0.342400000000     0.543760000000    -0.16924    
Ni1      Ni     0.989010000000     0.073770000000     0.452840000000     1.00182    
Ni2      Ni     0.990730000000     0.007130000000     0.548430000000     0.999173   
Ni3      Ni     0.046510000000     0.541380000000     0.500120000000     0.985096   
Ni4      Ni     0.934430000000     0.538730000000     0.503920000000     1.01032    
Ni5      Ni     0.489260000000     0.987670000000     0.506560000000     0.996669   
Ni6      Ni     0.490090000000     0.109750000000     0.492280000000     0.995988   
Ni7      Ni     0.444300000000     0.043700000000     0.000730000000     0.983842   
Ni8      Ni     0.556450000000     0.043820000000     0.999330000000     1.01109    
Ni9      Ni     0.001360000000     0.482270000000     0.996580000000     1.00143    
Ni10     Ni     0.001420000000     0.604440000000     0.010500000000     0.996837   
Ni11     Ni     0.501810000000     0.513770000000     0.943930000000     1.00121    
Ni12     Ni     0.501430000000     0.580540000000     0.039500000000     1.00606    
O1       O      0.982940000000     0.987280000000     0.407660000000    -0.446086   
O2       O      0.995360000000     0.154910000000     0.504160000000    -0.453722   
O3       O      0.079050000000     0.067600000000     0.451620000000    -0.452008   
O4       O      0.899040000000     0.077610000000     0.461250000000    -0.450537   
O5       O      0.900330000000     0.013320000000     0.549160000000    -0.44888    
O6       O      0.081100000000     0.004420000000     0.540130000000    -0.448217   
O7       O      0.996320000000     0.093130000000     0.593830000000    -0.448214   
O8       O      0.984490000000     0.925900000000     0.497540000000    -0.454454   
O9       O      0.045040000000     0.565440000000     0.589160000000    -0.444239   
O10      O      0.040160000000     0.516190000000     0.411760000000    -0.445268   
O11      O      0.040030000000     0.637440000000     0.477720000000    -0.447148   
O12      O      0.045360000000     0.445240000000     0.522340000000    -0.448833   
O13      O      0.940600000000     0.441090000000     0.518440000000    -0.451554   
O14      O      0.935790000000     0.636660000000     0.489300000000    -0.450528   
O15      O      0.935450000000     0.524680000000     0.414030000000    -0.454143   
O16      O      0.940780000000     0.552120000000     0.593540000000    -0.453829   
O17      O      0.480190000000     0.980130000000     0.415360000000    -0.443918   
O18      O      0.499070000000     0.004050000000     0.595720000000    -0.449714   
O19      O      0.399490000000     0.993670000000     0.515290000000    -0.449666   
O20      O      0.579170000000     0.989710000000     0.498830000000    -0.449849   
O21      O      0.580690000000     0.104740000000     0.493070000000    -0.446605   
O22      O      0.399430000000     0.105730000000     0.491060000000    -0.447285   
O23      O      0.488090000000     0.117910000000     0.583390000000    -0.448579   
O24      O      0.492710000000     0.093790000000     0.402940000000    -0.452772   
O25      O      0.448280000000     0.139980000000     0.022940000000    -0.446717   
O26      O      0.448010000000     0.947680000000     0.978010000000    -0.447862   
O27      O      0.449340000000     0.018640000000     0.089350000000    -0.444121   
O28      O      0.447070000000     0.068020000000     0.911920000000    -0.444872   
O29      O      0.551650000000     0.057050000000     0.909560000000    -0.453793   
O30      O      0.553840000000     0.029820000000     0.089190000000    -0.45399    
O31      O      0.552680000000     0.946140000000     0.984620000000    -0.451801   
O32      O      0.552740000000     0.141660000000     0.013650000000    -0.451121   
O33      O      0.994290000000     0.498440000000     0.907140000000    -0.450163   
O34      O      0.007840000000     0.474880000000     0.087830000000    -0.44614    
O35      O      0.911430000000     0.485550000000     0.001890000000    -0.452065   
O36      O      0.091250000000     0.486960000000     0.990960000000    -0.452407   
O37      O      0.091780000000     0.599170000000     0.014580000000    -0.448996   
O38      O      0.911010000000     0.600630000000     0.007450000000    -0.44835    
O39      O      0.996270000000     0.588750000000     0.099820000000    -0.452569   
O40      O      0.005900000000     0.612240000000     0.919310000000    -0.447535   
O41      O      0.502140000000     0.432380000000     0.995440000000    -0.452934   
O42      O      0.501740000000     0.600130000000     0.898380000000    -0.447381   
O43      O      0.592030000000     0.515670000000     0.947670000000    -0.451667   
O44      O      0.411520000000     0.515480000000     0.947200000000    -0.451677   
O45      O      0.411230000000     0.579320000000     0.035360000000    -0.452344   
O46      O      0.591710000000     0.579530000000     0.035870000000    -0.451725   
O47      O      0.501630000000     0.661640000000     0.988190000000    -0.456483   
O48      O      0.501340000000     0.494230000000     0.085070000000    -0.447786   


