data_structure

_audit_creation_method RASPA-1.0
_audit_creation_date 2023-5-25
_audit_author_name 'Poobodin Mano'

_cell_length_a    29.4364
_cell_length_b    29.0623
_cell_length_c    29.2065
_cell_angle_alpha 89.997
_cell_angle_beta  89.997
_cell_angle_gamma 89.997
_cell_volume      24985.9

_symmetry_cell_setting          triclinic
_symmetry_space_group_name_Hall 'P 1'
_symmetry_space_group_name_H-M  'P 1'
_symmetry_Int_Tables_number     1

_symmetry_equiv_pos_as_xyz 'x,y,z'

loop_
_atom_site_label
_atom_site_type_symbol
_atom_site_fract_x
_atom_site_fract_y
_atom_site_fract_z
_atom_site_charge
C1       C      0.017960000000     0.940960000000     0.539600000000     0.443555   
C2       C      0.999890000000     0.115260000000     0.539430000000     0.431936   
C3       C      0.922780000000     0.020730000000     0.533380000000     0.428882   
C4       C      0.094620000000     0.037860000000     0.545340000000     0.444262   
C5       C      0.023830000000     0.520200000000     0.580890000000     0.427248   
C6       C      0.023340000000     0.526250000000     0.406170000000     0.442008   
C7       C      0.015550000000     0.611460000000     0.496250000000     0.430852   
C8       C      0.031510000000     0.437020000000     0.490150000000     0.442799   
C9       C      0.512930000000     0.013920000000     0.433890000000     0.44893    
C10      C      0.500170000000     0.019180000000     0.607840000000     0.452605   
C11      C      0.420240000000     0.018140000000     0.514600000000     0.434265   
C12      C      0.593130000000     0.013240000000     0.527680000000     0.448023   
C13      C      0.489100000000     0.086300000000     0.027990000000     0.428344   
C14      C      0.500090000000     0.911580000000     0.015900000000     0.445597   
C15      C      0.486360000000     0.991350000000     0.108360000000     0.434312   
C16      C      0.503340000000     0.004130000000     0.935550000000     0.43068    
C17      C      0.997120000000     0.502180000000     0.912330000000     0.443731   
C18      C      0.986500000000     0.478560000000     0.085310000000     0.433859   
C19      C      0.906010000000     0.495030000000     0.994610000000     0.450951   
C20      C      0.078840000000     0.483920000000     0.003530000000     0.430296   
C21      C      0.503850000000     0.416820000000     0.979970000000     0.447155   
C22      C      0.482630000000     0.590250000000     0.962770000000     0.434093   
C23      C      0.407450000000     0.495190000000     0.976570000000     0.44508    
C24      C      0.579430000000     0.514280000000     0.965700000000     0.434431   
C25      C      0.649810000000     0.549840000000     0.995790000000     0.0147635  
C26      C      0.833030000000     0.457230000000     0.977130000000     0.0373618  
C27      C      0.834880000000     0.536070000000     0.013930000000     0.344709   
C28      C      0.794740000000     0.472500000000     0.945070000000    -0.12501    
C29      C      0.694490000000     0.527130000000     0.010080000000    -0.0981761  
C30      C      0.794710000000     0.550990000000     0.984140000000    -0.197227   
C31      C      0.720880000000     0.509230000000     0.969040000000     0.0116525  
C32      C      0.767200000000     0.509900000000     0.968090000000     0.0746933  
C33      C      0.650450000000     0.506410000000     0.921300000000     0.0161038  
C34      C      0.693640000000     0.480690000000     0.935350000000    -0.100136   
C35      C      0.148170000000     0.438260000000     0.989600000000     0.0129521  
C36      C      0.337450000000     0.517150000000     0.017240000000     0.0362048  
C37      C      0.334140000000     0.479830000000     0.938840000000     0.34543    
C38      C      0.294400000000     0.491460000000     0.031340000000    -0.123675   
C39      C      0.190190000000     0.451080000000     0.961550000000    -0.0967538  
C40      C      0.292030000000     0.452360000000     0.953310000000    -0.200201   
C41      C      0.220150000000     0.483080000000     0.989110000000     0.00999033 
C42      C      0.266240000000     0.478380000000     0.989940000000     0.0768514  
C43      C      0.152370000000     0.513200000000     0.032910000000     0.0116443  
C44      C      0.196430000000     0.525530000000     0.007870000000    -0.0958555  
C45      C      0.448080000000     0.661230000000     0.992990000000     0.0159267  
C46      C      0.542590000000     0.841980000000     0.992000000000     0.0347356  
C47      C      0.465570000000     0.835390000000     0.029880000000     0.345016   
C48      C      0.527770000000     0.808050000000     0.954270000000    -0.122327   
C49      C      0.475150000000     0.701670000000     0.011630000000    -0.0996206  
C50      C      0.449940000000     0.802460000000     0.992480000000    -0.197742   
C51      C      0.493620000000     0.730540000000     0.972570000000     0.0142954  
C52      C      0.490390000000     0.777250000000     0.972560000000     0.073344   
C53      C      0.492640000000     0.662770000000     0.919350000000     0.0128071  
C54      C      0.520310000000     0.704410000000     0.936460000000    -0.0992833  
C55      C      0.519010000000     0.160550000000     0.057320000000     0.0118899  
C56      C      0.497810000000     0.339030000000     0.946310000000     0.0353839  
C57      C      0.533290000000     0.350140000000     0.024040000000     0.34263    
C58      C      0.469910000000     0.298250000000     0.963910000000    -0.122805   
C59      C      0.534030000000     0.203140000000     0.030310000000    -0.0954262  
C60      C      0.508480000000     0.307340000000     0.041930000000    -0.194927   
C61      C      0.494040000000     0.228400000000     0.008870000000     0.00603404 
C62      C      0.494250000000     0.275130000000     0.003470000000     0.0722253  
C63      C      0.445620000000     0.157690000000     0.013580000000     0.0124824  
C64      C      0.460480000000     0.198080000000     0.983430000000    -0.0964737  
C65      C      0.478240000000     0.975830000000     0.860210000000     0.0145887  
C66      C      0.508760000000     0.063710000000     0.679260000000     0.0371148  
C67      C      0.475910000000     0.983150000000     0.680630000000     0.345515   
C68      C      0.539100000000     0.052520000000     0.720410000000    -0.124923   
C69      C      0.465140000000     0.001480000000     0.816670000000    -0.100291   
C70      C      0.504380000000     0.972120000000     0.722970000000    -0.197524   
C71      C      0.506830000000     0.021750000000     0.794000000000     0.0132351  
C72      C      0.516220000000     0.015710000000     0.748820000000     0.0735878  
C73      C      0.548880000000     0.024930000000     0.867750000000     0.0131668  
C74      C      0.535730000000     0.051910000000     0.824600000000    -0.099627   
C75      C      0.514340000000     0.956860000000     0.180210000000     0.0129516  
C76      C      0.501610000000     0.053530000000     0.360020000000     0.0359067  
C77      C      0.533580000000     0.972830000000     0.362540000000     0.344858   
C78      C      0.466800000000     0.039200000000     0.323670000000    -0.123892   
C79      C      0.528670000000     0.980850000000     0.224370000000    -0.0969575  
C80      C      0.500940000000     0.958220000000     0.324550000000    -0.197103   
C81      C      0.487890000000     0.999920000000     0.249920000000     0.0108587  
C82      C      0.486010000000     0.999400000000     0.296420000000     0.072974   
C83      C      0.441080000000     0.001680000000     0.178720000000     0.0133846  
C84      C      0.455160000000     0.028430000000     0.221650000000    -0.0984112  
C85      C      0.063450000000     0.532190000000     0.654630000000     0.0121095  
C86      C      0.975300000000     0.476340000000     0.834800000000     0.0357915  
C87      C      0.013810000000     0.553280000000     0.846700000000     0.344082   
C88      C      0.003060000000     0.468620000000     0.791290000000    -0.123087   
C89      C      0.047960000000     0.554180000000     0.699910000000    -0.0973047  
C90      C      0.042500000000     0.545740000000     0.803310000000    -0.19881    
C91      C      0.015210000000     0.522480000000     0.724550000000     0.0109591  
C92      C      0.017900000000     0.513990000000     0.770480000000     0.0755065  
C93      C      0.990790000000     0.485990000000     0.650730000000     0.012113   
C94      C      0.975060000000     0.507050000000     0.695930000000    -0.0963672  
C95      C      0.001620000000     0.434210000000     0.156250000000     0.0123531  
C96      C      0.983630000000     0.543290000000     0.333420000000     0.0362889  
C97      C      0.061950000000     0.507870000000     0.332860000000     0.34196    
C98      C      0.966720000000     0.506740000000     0.300100000000    -0.122491   
C99      C      0.030340000000     0.452090000000     0.196760000000    -0.0973971  
C100     C      0.046030000000     0.471030000000     0.298310000000    -0.195182   
C101     C      0.003810000000     0.487240000000     0.224600000000     0.0128052  
C102     C      0.005770000000     0.488930000000     0.271230000000     0.0728725  
C103     C      0.953890000000     0.506000000000     0.158010000000     0.0132932  
C104     C      0.981950000000     0.525660000000     0.197150000000    -0.0958321  
C105     C      0.346950000000     0.977900000000     0.524570000000     0.0158777  
C106     C      0.164650000000     0.073860000000     0.515410000000     0.0370745  
C107     C      0.166130000000     0.027710000000     0.588460000000     0.346326   
C108     C      0.208300000000     0.050700000000     0.499020000000    -0.122017   
C109     C      0.309090000000     0.991420000000     0.557980000000    -0.0996309  
C110     C      0.208800000000     0.002030000000     0.572380000000    -0.200069   
C111     C      0.281800000000     0.030680000000     0.537810000000     0.0111408  
C112     C      0.235510000000     0.031200000000     0.538720000000     0.0776521  
C113     C      0.349230000000     0.058350000000     0.492440000000     0.0140065  
C114     C      0.309480000000     0.072290000000     0.523210000000    -0.097311   
C115     C      0.854720000000     0.001880000000     0.488080000000     0.0130398  
C116     C      0.664630000000     0.048890000000     0.554240000000     0.0375886  
C117     C      0.663590000000     0.967770000000     0.522410000000     0.347425   
C118     C      0.710350000000     0.057560000000     0.530870000000    -0.12376    
C119     C      0.810250000000     0.977060000000     0.499780000000    -0.0971798  
C120     C      0.707760000000     0.977000000000     0.496190000000    -0.202174   
C121     C      0.780700000000     0.008040000000     0.528890000000     0.0105822  
C122     C      0.735290000000     0.012910000000     0.521330000000     0.0789449  
C123     C      0.848880000000     0.048770000000     0.560940000000     0.0119841  
C124     C      0.803310000000     0.026150000000     0.571840000000    -0.0962374  
C125     C      0.969260000000     0.680320000000     0.513860000000     0.012374   
C126     C      0.051730000000     0.871410000000     0.504640000000     0.0365659  
C127     C      0.007150000000     0.866010000000     0.578330000000     0.344501   
C128     C      0.027730000000     0.828740000000     0.486170000000    -0.123119   
C129     C      0.980680000000     0.720180000000     0.546430000000    -0.0970615  
C130     C      0.982020000000     0.823270000000     0.560440000000    -0.198699   
C131     C      0.015080000000     0.751920000000     0.524190000000     0.0107483  
C132     C      0.010740000000     0.798620000000     0.525000000000     0.0760576  
C133     C      0.045580000000     0.688150000000     0.475350000000     0.0117899  
C134     C      0.057660000000     0.728290000000     0.506760000000    -0.0958163  
C135     C      0.011390000000     0.190250000000     0.577860000000     0.012063   
C136     C      0.001430000000     0.362100000000     0.464090000000     0.0372142  
C137     C      0.074810000000     0.366430000000     0.508510000000     0.343847   
C138     C      0.983550000000     0.324990000000     0.496160000000    -0.122269   
C139     C      0.044790000000     0.226910000000     0.560300000000    -0.0972721  
C140     C      0.058050000000     0.328850000000     0.541550000000    -0.197461   
C141     C      0.023660000000     0.252410000000     0.520280000000     0.011617   
C142     C      0.022700000000     0.299130000000     0.518030000000     0.07377    
C143     C      0.973700000000     0.186070000000     0.500570000000     0.0137288  
C144     C      0.006150000000     0.222240000000     0.481750000000    -0.0966619  
F1       F      0.818660000000     0.522600000000     0.056380000000    -0.446551   
F2       F      0.320640000000     0.518650000000     0.914900000000    -0.441713   
F3       F      0.481270000000     0.810140000000     0.066870000000    -0.448446   
F4       F      0.576790000000     0.337620000000     0.010950000000    -0.446035   
F5       F      0.432730000000     0.996010000000     0.694450000000    -0.447089   
F6       F      0.574970000000     0.984330000000     0.343120000000    -0.447916   
F7       F      0.976470000000     0.580210000000     0.835950000000    -0.441276   
F8       F      0.082210000000     0.543770000000     0.309270000000    -0.441443   
F9       F      0.178790000000     0.064610000000     0.615660000000    -0.439168   
F10      F      0.673550000000     0.945980000000     0.563410000000    -0.442636   
F11      F      0.043670000000     0.852210000000     0.604910000000    -0.439895   
F12      F      0.100660000000     0.346370000000     0.474260000000    -0.44229    
H1       H      0.713740000000     0.551530000000     0.031730000000     0.0658527  
H2       H      0.817920000000     0.439590000000     0.007320000000     0.0546394  
H3       H      0.660180000000     0.537220000000     0.900920000000     0.0330026  
H4       H      0.713060000000     0.473930000000     0.903420000000     0.0483939  
H5       H      0.774240000000     0.441410000000     0.937230000000     0.056004   
H6       H      0.774630000000     0.577460000000     0.002370000000     0.0937347  
H7       H      0.629220000000     0.557060000000     0.026890000000     0.0438977  
H8       H      0.854380000000     0.431740000000     0.958580000000     0.0365497  
H9       H      0.684570000000     0.447210000000     0.951340000000     0.0660293  
H10      H      0.808390000000     0.568440000000     0.953200000000     0.078679   
H11      H      0.629970000000     0.483440000000     0.898910000000     0.0438878  
H12      H      0.686440000000     0.497200000000     0.032360000000     0.0720617  
H13      H      0.809240000000     0.485870000000     0.912530000000     0.0606077  
H14      H      0.857270000000     0.566390000000     0.019370000000    -0.00361959 
H15      H      0.657940000000     0.583530000000     0.979690000000     0.031373   
H16      H      0.207680000000     0.418330000000     0.952940000000     0.0464746  
H17      H      0.327620000000     0.552340000000     0.006010000000     0.0492962  
H18      H      0.161520000000     0.497270000000     0.066280000000     0.0323609  
H19      H      0.217880000000     0.546760000000     0.030710000000     0.0513598  
H20      H      0.275810000000     0.511950000000     0.057210000000     0.0544525  
H21      H      0.271390000000     0.446780000000     0.921960000000     0.0948144  
H22      H      0.125750000000     0.416650000000     0.967760000000     0.0402775  
H23      H      0.359570000000     0.521140000000     0.047830000000     0.0362721  
H24      H      0.187710000000     0.547950000000     0.978310000000     0.0652577  
H25      H      0.302450000000     0.418220000000     0.966910000000     0.0708791  
H26      H      0.133310000000     0.545330000000     0.040500000000     0.0437942  
H27      H      0.179820000000     0.468310000000     0.929210000000     0.0601339  
H28      H      0.304580000000     0.459150000000     0.048950000000     0.058063   
H29      H      0.354450000000     0.457890000000     0.915260000000    -0.00912128 
H30      H      0.158960000000     0.417040000000     0.019400000000     0.0323624  
H31      H      0.454170000000     0.720940000000     0.036570000000     0.0750071  
H32      H      0.560820000000     0.822440000000     0.019110000000     0.0550463  
H33      H      0.463510000000     0.675620000000     0.898730000000     0.038438   
H34      H      0.528020000000     0.726320000000     0.906250000000     0.0471837  
H35      H      0.558260000000     0.788390000000     0.943370000000     0.0536773  
H36      H      0.422630000000     0.779590000000     0.005290000000     0.0901944  
H37      H      0.437140000000     0.638790000000     0.021790000000     0.042836   
H38      H      0.566840000000     0.867130000000     0.976960000000     0.0360365  
H39      H      0.552910000000     0.692390000000     0.951500000000     0.0556803  
H40      H      0.434150000000     0.823010000000     0.964590000000     0.0754327  
H41      H      0.514510000000     0.641380000000     0.896740000000     0.0406112  
H42      H      0.504520000000     0.688040000000     0.031350000000     0.0705639  
H43      H      0.514810000000     0.827510000000     0.924230000000     0.056486   
H44      H      0.435830000000     0.855710000000     0.041770000000    -0.00567379 
H45      H      0.416840000000     0.674890000000     0.976420000000     0.0359697  
H46      H      0.555240000000     0.224810000000     0.052920000000     0.0595174  
H47      H      0.529620000000     0.325760000000     0.930530000000     0.0537189  
H48      H      0.425540000000     0.171310000000     0.042890000000     0.0319099  
H49      H      0.429130000000     0.217230000000     0.974110000000     0.0449757  
H50      H      0.465220000000     0.274520000000     0.934470000000     0.0530063  
H51      H      0.529680000000     0.290910000000     0.068570000000     0.093078   
H52      H      0.549500000000     0.140200000000     0.067010000000     0.0422654  
H53      H      0.477910000000     0.356530000000     0.919020000000     0.0369951  
H54      H      0.476530000000     0.184930000000     0.951560000000     0.0544711  
H55      H      0.477040000000     0.318840000000     0.059660000000     0.0719278  
H56      H      0.422990000000     0.135050000000     0.993060000000     0.0408395  
H57      H      0.556640000000     0.191660000000     0.002040000000     0.0632112  
H58      H      0.435940000000     0.310310000000     0.975460000000     0.055691   
H59      H      0.536520000000     0.375150000000     0.052640000000    -0.005306   
H60      H      0.502770000000     0.172450000000     0.089610000000     0.0311035  
H61      H      0.444840000000     0.978720000000     0.794170000000     0.0727377  
H62      H      0.477180000000     0.080600000000     0.691760000000     0.053525   
H63      H      0.573000000000     0.997120000000     0.858060000000     0.0342238  
H64      H      0.567880000000     0.062740000000     0.807880000000     0.0465966  
H65      H      0.544430000000     0.085110000000     0.739480000000     0.0534966  
H66      H      0.487320000000     0.945590000000     0.744120000000     0.0916343  
H67      H      0.446790000000     0.965130000000     0.878390000000     0.041735   
H68      H      0.527030000000     0.088800000000     0.657180000000     0.0363857  
H69      H      0.516260000000     0.083220000000     0.834220000000     0.0553789  
H70      H      0.536720000000     0.956140000000     0.711410000000     0.0788712  
H71      H      0.566780000000     0.048670000000     0.891570000000     0.0397367  
H72      H      0.442230000000     0.030370000000     0.826150000000     0.067021   
H73      H      0.572660000000     0.039820000000     0.708380000000     0.0609629  
H74      H      0.472520000000     0.951310000000     0.659830000000    -0.00409739 
H75      H      0.496620000000     0.943900000000     0.850290000000     0.0300507  
H76      H      0.549790000000     0.956940000000     0.244810000000     0.0704928  
H77      H      0.531960000000     0.068130000000     0.342550000000     0.0536823  
H78      H      0.420140000000     0.971590000000     0.189190000000     0.0366927  
H79      H      0.423610000000     0.036400000000     0.241010000000     0.0455161  
H80      H      0.459670000000     0.069890000000     0.302180000000     0.0525323  
H81      H      0.516060000000     0.930010000000     0.304090000000     0.0934301  
H82      H      0.545100000000     0.948250000000     0.159840000000     0.0481591  
H83      H      0.486340000000     0.081150000000     0.381410000000     0.0355214  
H84      H      0.471740000000     0.061310000000     0.211680000000     0.0545693  
H85      H      0.470120000000     0.943270000000     0.340770000000     0.0751571  
H86      H      0.419720000000     0.024440000000     0.156930000000     0.0394396  
H87      H      0.551070000000     0.010290000000     0.215360000000     0.0676081  
H88      H      0.434640000000     0.028370000000     0.340460000000     0.0564477  
H89      H      0.539390000000     0.943020000000     0.385660000000    -0.00487037 
H90      H      0.497620000000     0.923830000000     0.189510000000     0.0410232  
H91      H      0.079090000000     0.560880000000     0.720330000000     0.0502771  
H92      H      0.941720000000     0.490760000000     0.824850000000     0.048707   
H93      H      0.006940000000     0.452220000000     0.658210000000     0.0287277  
H94      H      0.951950000000     0.482770000000     0.713530000000     0.0488023  
H95      H      0.983850000000     0.446110000000     0.767660000000     0.0519083  
H96      H      0.048920000000     0.580170000000     0.788140000000     0.0978949  
H97      H      0.083930000000     0.557910000000     0.635410000000     0.0430171  
H98      H      0.968850000000     0.442480000000     0.851280000000     0.0350958  
H99      H      0.954160000000     0.537940000000     0.688120000000     0.0633829  
H100     H      0.075740000000     0.530220000000     0.812680000000     0.074082   
H101     H      0.960510000000     0.479090000000     0.629050000000     0.0395365  
H102     H      0.030940000000     0.587590000000     0.692930000000     0.0624052  
H103     H      0.034180000000     0.449040000000     0.800540000000     0.0582484  
H104     H      0.034960000000     0.572630000000     0.871710000000    -0.00535345 
H105     H      0.085920000000     0.502450000000     0.662530000000     0.0353069  
H106     H      0.039970000000     0.421850000000     0.217940000000     0.0485144  
H107     H      0.994300000000     0.573950000000     0.313320000000     0.0526205  
H108     H      0.924190000000     0.487660000000     0.172920000000     0.0402066  
H109     H      0.960600000000     0.549400000000     0.217500000000     0.0531408  
H110     H      0.937610000000     0.520100000000     0.280110000000     0.0548109  
H111     H      0.075360000000     0.462330000000     0.275990000000     0.0960541  
H112     H      0.023470000000     0.412860000000     0.133570000000     0.0385504  
H113     H      0.955180000000     0.554190000000     0.355990000000     0.0369723  
H114     H      0.009580000000     0.547140000000     0.182410000000     0.0684211  
H115     H      0.035760000000     0.439380000000     0.317000000000     0.0752965  
H116     H      0.940450000000     0.534600000000     0.136620000000     0.051189   
H117     H      0.061890000000     0.468410000000     0.183590000000     0.0607792  
H118     H      0.953020000000     0.477410000000     0.320270000000     0.0604177  
H119     H      0.088070000000     0.492050000000     0.355420000000    -0.000238236
H120     H      0.974040000000     0.411990000000     0.169990000000     0.0360387  
H121     H      0.288110000000     0.960210000000     0.563870000000     0.0527093  
H122     H      0.174010000000     0.106770000000     0.532420000000     0.0535934  
H123     H      0.335250000000     0.048290000000     0.458510000000     0.0286815  
H124     H      0.289420000000     0.099490000000     0.506050000000     0.0515712  
H125     H      0.227370000000     0.075330000000     0.477460000000     0.053781   
H126     H      0.229170000000     0.993860000000     0.603380000000     0.102068   
H127     H      0.367920000000     0.950610000000     0.540880000000     0.0468591  
H128     H      0.143340000000     0.082740000000     0.485240000000     0.0361012  
H129     H      0.323540000000     0.088410000000     0.554690000000     0.0683295  
H130     H      0.198880000000     0.969200000000     0.555600000000     0.0774394  
H131     H      0.371650000000     0.088620000000     0.486900000000     0.0407122  
H132     H      0.324030000000     0.002340000000     0.591200000000     0.0734091  
H133     H      0.198930000000     0.021580000000     0.476210000000     0.0589058  
H134     H      0.145620000000     0.003710000000     0.609750000000     0.000459122
H135     H      0.331290000000     0.963090000000     0.493190000000     0.0324698  
H136     H      0.793740000000     0.968040000000     0.466770000000     0.049257   
H137     H      0.671270000000     0.039100000000     0.590430000000     0.0475141  
H138     H      0.842080000000     0.082420000000     0.544130000000     0.0298088  
H139     H      0.782060000000     0.050470000000     0.591660000000     0.0500954  
H140     H      0.730190000000     0.082600000000     0.551290000000     0.0526552  
H141     H      0.725970000000     0.943640000000     0.493290000000     0.0976641  
H142     H      0.877370000000     0.977300000000     0.469830000000     0.0390386  
H143     H      0.644940000000     0.081530000000     0.554850000000     0.034885   
H144     H      0.809620000000     0.996390000000     0.594890000000     0.0652305  
H145     H      0.699890000000     0.989540000000     0.461110000000     0.0819473  
H146     H      0.866830000000     0.056180000000     0.593610000000     0.0417826  
H147     H      0.817630000000     0.944760000000     0.518760000000     0.0605697  
H148     H      0.703800000000     0.074580000000     0.497420000000     0.0610615  
H149     H      0.642660000000     0.943900000000     0.501410000000    -0.00222449 
H150     H      0.847190000000     0.030820000000     0.464320000000     0.0342942  
H151     H      0.948230000000     0.738040000000     0.554260000000     0.0489252  
H152     H      0.084390000000     0.860400000000     0.520370000000     0.0515194  
H153     H      0.031370000000     0.702420000000     0.443050000000     0.0347724  
H154     H      0.081870000000     0.751420000000     0.489130000000     0.0516268  
H155     H      0.050310000000     0.810950000000     0.461590000000     0.0539763  
H156     H      0.974590000000     0.801120000000     0.590520000000     0.0974073  
H157     H      0.946910000000     0.655650000000     0.532290000000     0.0417461  
H158     H      0.060190000000     0.894570000000     0.475590000000     0.0356592  
H159     H      0.076290000000     0.714460000000     0.536880000000     0.0651494  
H160     H      0.949240000000     0.833710000000     0.544650000000     0.0732131  
H161     H      0.077140000000     0.669210000000     0.466300000000     0.0470135  
H162     H      0.994950000000     0.706410000000     0.578900000000     0.0617814  
H163     H      0.997740000000     0.840070000000     0.465980000000     0.0593794  
H164     H      0.983330000000     0.885520000000     0.600620000000    -0.00454323 
H165     H      0.949860000000     0.694210000000     0.484230000000     0.0342817  
H166     H      0.052680000000     0.250080000000     0.589470000000     0.0495964  
H167     H      0.017610000000     0.344940000000     0.434200000000     0.050771   
H168     H      0.942510000000     0.203840000000     0.512840000000     0.0283629  
H169     H      0.989800000000     0.241290000000     0.453350000000     0.0498751  
H170     H      0.958920000000     0.302930000000     0.477750000000     0.0515699  
H171     H      0.088200000000     0.308640000000     0.552490000000     0.0961239  
H172     H      0.028610000000     0.169410000000     0.604660000000     0.0469928  
H173     H      0.972510000000     0.382800000000     0.450840000000     0.0339016  
H174     H      0.035750000000     0.204310000000     0.466230000000     0.0643685  
H175     H      0.042700000000     0.345030000000     0.572380000000     0.0707247  
H176     H      0.963410000000     0.162330000000     0.472580000000     0.0391395  
H177     H      0.076820000000     0.210170000000     0.548930000000     0.0642877  
H178     H      0.963910000000     0.341920000000     0.523970000000     0.0581056  
H179     H      0.097040000000     0.390380000000     0.528020000000    -0.00581191 
H180     H      0.981930000000     0.207940000000     0.593980000000     0.0323187  
N1       N      0.859650000000     0.497180000000     0.993030000000    -0.204894   
N2       N      0.625190000000     0.521370000000     0.962180000000    -0.17667    
N3       N      0.361100000000     0.494020000000     0.979010000000    -0.206445   
N4       N      0.125040000000     0.479950000000     0.006500000000    -0.177271   
N5       N      0.502630000000     0.864800000000     0.012500000000    -0.20539    
N6       N      0.475060000000     0.636310000000     0.958520000000    -0.176593   
N7       N      0.509590000000     0.370260000000     0.984250000000    -0.205243   
N8       N      0.485660000000     0.133140000000     0.031360000000    -0.177181   
N9       N      0.496500000000     0.021240000000     0.654380000000    -0.205574   
N10      N      0.508450000000     0.004060000000     0.889150000000    -0.178649   
N11      N      0.515490000000     0.013150000000     0.387260000000    -0.206331   
N12      N      0.481700000000     0.985210000000     0.154380000000    -0.176527   
N13      N      0.997980000000     0.509120000000     0.865970000000    -0.205134   
N14      N      0.024400000000     0.515680000000     0.627550000000    -0.176546   
N15      N      0.023020000000     0.525810000000     0.359350000000    -0.203368   
N16      N      0.981170000000     0.473040000000     0.131360000000    -0.175737   
N17      N      0.140380000000     0.044690000000     0.548700000000    -0.205584   
N18      N      0.373900000000     0.018710000000     0.511830000000    -0.177108   
N19      N      0.639310000000     0.011170000000     0.531980000000    -0.205299   
N20      N      0.876550000000     0.020380000000     0.529600000000    -0.177264   
N21      N      0.023860000000     0.894310000000     0.539920000000    -0.205216   
N22      N      0.011110000000     0.658270000000     0.496800000000    -0.176375   
N23      N      0.035720000000     0.390360000000     0.487770000000    -0.205935   
N24      N      0.995000000000     0.161920000000     0.539390000000    -0.177981   
Ni1      Ni     0.006150000000     0.027950000000     0.579930000000     1.01505    
Ni2      Ni     0.011460000000     0.028420000000     0.498960000000     0.99643    
Ni3      Ni     0.063680000000     0.527820000000     0.493620000000     1.00851    
Ni4      Ni     0.983470000000     0.520450000000     0.493440000000     0.998022   
Ni5      Ni     0.505530000000     0.975190000000     0.522000000000     1.02348    
Ni6      Ni     0.507890000000     0.057090000000     0.519780000000     1.00722    
Ni7      Ni     0.454780000000     0.996580000000     0.018020000000     1.00977    
Ni8      Ni     0.534780000000     0.001110000000     0.026040000000     0.996838   
Ni9      Ni     0.990320000000     0.449530000000     0.993030000000     1.00296    
Ni10     Ni     0.994580000000     0.530390000000     0.004770000000     1.01173    
Ni11     Ni     0.495470000000     0.508280000000     0.011750000000     1.00481    
Ni12     Ni     0.491650000000     0.499140000000     0.930900000000     1.01283    
O1       O      0.007830000000     0.962060000000     0.576800000000    -0.438882   
O2       O      0.004960000000     0.093780000000     0.577420000000    -0.446248   
O3       O      0.941390000000     0.027060000000     0.572580000000    -0.447637   
O4       O      0.071260000000     0.029480000000     0.581460000000    -0.435228   
O5       O      0.075070000000     0.040640000000     0.506210000000    -0.451216   
O6       O      0.947380000000     0.016770000000     0.497350000000    -0.449104   
O7       O      0.999440000000     0.093130000000     0.501470000000    -0.449398   
O8       O      0.023120000000     0.963580000000     0.502250000000    -0.45205    
O9       O      0.060570000000     0.529970000000     0.559320000000    -0.445137   
O10      O      0.061170000000     0.524570000000     0.427930000000    -0.435451   
O11      O      0.054860000000     0.593190000000     0.490880000000    -0.444038   
O12      O      0.066850000000     0.462040000000     0.496270000000    -0.441357   
O13      O      0.992230000000     0.455610000000     0.486070000000    -0.454787   
O14      O      0.980280000000     0.585930000000     0.500560000000    -0.447806   
O15      O      0.985690000000     0.527710000000     0.428220000000    -0.450664   
O16      O      0.986860000000     0.513270000000     0.558680000000    -0.448195   
O17      O      0.511010000000     0.976110000000     0.456500000000    -0.451769   
O18      O      0.500190000000     0.980120000000     0.587360000000    -0.446706   
O19      O      0.440990000000     0.979520000000     0.517580000000    -0.451919   
O20      O      0.570210000000     0.975810000000     0.526350000000    -0.441133   
O21      O      0.572880000000     0.052320000000     0.525470000000    -0.449175   
O22      O      0.442750000000     0.055980000000     0.514460000000    -0.44573    
O23      O      0.503470000000     0.056550000000     0.584880000000    -0.454031   
O24      O      0.512020000000     0.052650000000     0.454760000000    -0.454639   
O25      O      0.453930000000     0.062450000000     0.017610000000    -0.450424   
O26      O      0.461160000000     0.931080000000     0.019080000000    -0.452747   
O27      O      0.450970000000     0.997010000000     0.083440000000    -0.448676   
O28      O      0.464280000000     0.995970000000     0.953170000000    -0.450992   
O29      O      0.537970000000     0.010830000000     0.961310000000    -0.44932    
O30      O      0.525980000000     0.990390000000     0.090160000000    -0.445571   
O31      O      0.536510000000     0.935820000000     0.015920000000    -0.445681   
O32      O      0.527270000000     0.066240000000     0.035380000000    -0.444788   
O33      O      0.991220000000     0.461540000000     0.928410000000    -0.451358   
O34      O      0.989670000000     0.443330000000     0.058920000000    -0.442382   
O35      O      0.925750000000     0.455820000000     0.992090000000    -0.451547   
O36      O      0.055070000000     0.448340000000     0.993840000000    -0.453958   
O37      O      0.059360000000     0.522790000000     0.010790000000    -0.445108   
O38      O      0.929550000000     0.531950000000     0.999070000000    -0.441895   
O39      O      0.987070000000     0.519260000000     0.068640000000    -0.447777   
O40      O      0.001220000000     0.536540000000     0.939620000000    -0.437993   
O41      O      0.505960000000     0.442940000000     0.015370000000    -0.446737   
O42      O      0.484350000000     0.572320000000     0.002760000000    -0.450299   
O43      O      0.431030000000     0.499060000000     0.013290000000    -0.453114   
O44      O      0.559540000000     0.518560000000     0.004550000000    -0.444571   
O45      O      0.556440000000     0.504080000000     0.929840000000    -0.449171   
O46      O      0.427060000000     0.494270000000     0.937350000000    -0.438269   
O47      O      0.487050000000     0.565100000000     0.926920000000    -0.442708   
O48      O      0.496600000000     0.434230000000     0.940330000000    -0.45117    


