data_structure

_audit_creation_method RASPA-1.0
_audit_creation_date 2023-5-25
_audit_author_name 'Poobodin Mano'

_cell_length_a    28.9345
_cell_length_b    28.8213
_cell_length_c    29.29
_cell_angle_alpha 89.997
_cell_angle_beta  89.997
_cell_angle_gamma 89.997
_cell_volume      24425.8

_symmetry_cell_setting          triclinic
_symmetry_space_group_name_Hall 'P 1'
_symmetry_space_group_name_H-M  'P 1'
_symmetry_Int_Tables_number     1

_symmetry_equiv_pos_as_xyz 'x,y,z'

loop_
_atom_site_label
_atom_site_type_symbol
_atom_site_fract_x
_atom_site_fract_y
_atom_site_fract_z
_atom_site_charge
C1       C      0.978010000000     0.942120000000     0.539090000000     0.430658   
C2       C      0.009600000000     0.116530000000     0.538500000000     0.428496   
C3       C      0.907340000000     0.045470000000     0.539330000000     0.431862   
C4       C      0.080170000000     0.011160000000     0.539160000000     0.431134   
C5       C      0.985180000000     0.529520000000     0.602710000000     0.430224   
C6       C      0.998630000000     0.535170000000     0.429040000000     0.430589   
C7       C      0.969420000000     0.616880000000     0.515740000000     0.430772   
C8       C      0.014750000000     0.445860000000     0.514630000000     0.43021    
C9       C      0.497780000000     0.992060000000     0.403330000000     0.431762   
C10      C      0.496620000000     0.999680000000     0.577390000000     0.430016   
C11      C      0.408930000000     0.996220000000     0.491280000000     0.433317   
C12      C      0.585050000000     0.997180000000     0.489920000000     0.433311   
C13      C      0.560120000000     0.095820000000     0.001390000000     0.433316   
C14      C      0.517320000000     0.925170000000     0.984290000000     0.431048   
C15      C      0.539820000000     0.003810000000     0.079570000000     0.431705   
C16      C      0.537870000000     0.019390000000     0.906020000000     0.431115   
C17      C      0.012900000000     0.516550000000     0.929050000000     0.429253   
C18      C      0.041770000000     0.518120000000     0.101130000000     0.429753   
C19      C      0.941250000000     0.531090000000     0.029870000000     0.429124   
C20      C      0.113370000000     0.505410000000     0.999890000000     0.428527   
C21      C      0.537970000000     0.418220000000     0.981350000000     0.433094   
C22      C      0.514080000000     0.593450000000     0.988510000000     0.431693   
C23      C      0.439420000000     0.492570000000     0.971270000000     0.431073   
C24      C      0.612070000000     0.517240000000     0.998450000000     0.430589   
C25      C      0.874020000000     0.583900000000     0.028320000000     0.0143933  
C26      C      0.680960000000     0.500500000000     0.045380000000     0.0155695  
C27      C      0.687580000000     0.543640000000     0.969280000000     0.0571249  
C28      C      0.719620000000     0.530670000000     0.064980000000    -0.104842   
C29      C      0.828740000000     0.576900000000     0.002220000000    -0.101241   
C30      C      0.725380000000     0.574900000000     0.990170000000    -0.115506   
C31      C      0.797540000000     0.543530000000     0.027680000000     0.0173999  
C32      C      0.750690000000     0.548920000000     0.027510000000     0.0258531  
C33      C      0.867320000000     0.504850000000     0.063960000000     0.0135346  
C34      C      0.819720000000     0.497930000000     0.042000000000    -0.100678   
C35      C      0.184230000000     0.457780000000     0.006900000000     0.0129149  
C36      C      0.371430000000     0.495920000000     0.920520000000     0.0164014  
C37      C      0.368070000000     0.452680000000     0.996100000000     0.0554635  
C38      C      0.323670000000     0.517010000000     0.929350000000    -0.104634   
C39      C      0.220200000000     0.441260000000     0.972110000000    -0.101691   
C40      C      0.318320000000     0.470050000000     0.003520000000    -0.112613   
C41      C      0.248330000000     0.481630000000     0.954080000000     0.0177066  
C42      C      0.295010000000     0.485540000000     0.959630000000     0.0250345  
C43      C      0.186420000000     0.537900000000     0.970770000000     0.0138549  
C44      C      0.219420000000     0.520090000000     0.933760000000    -0.102665   
C45      C      0.537460000000     0.848880000000     0.952050000000     0.0158545  
C46      C      0.491540000000     0.664050000000     0.031130000000     0.0153427  
C47      C      0.536100000000     0.668810000000     0.955700000000     0.0570693  
C48      C      0.464530000000     0.708250000000     0.018400000000    -0.105483   
C49      C      0.548030000000     0.805610000000     0.979770000000    -0.102284   
C50      C      0.509650000000     0.713320000000     0.944190000000    -0.114527   
C51      C      0.503380000000     0.783250000000     0.995420000000     0.017849   
C52      C      0.493450000000     0.737880000000     0.986870000000     0.0257298  
C53      C      0.462350000000     0.859900000000     0.994460000000     0.0128783  
C54      C      0.471070000000     0.814930000000     0.021800000000    -0.10177    
C55      C      0.614560000000     0.161140000000     0.990040000000     0.0134444  
C56      C      0.525200000000     0.341790000000     0.016870000000     0.0167638  
C57      C      0.568080000000     0.348830000000     0.940870000000     0.0547488  
C58      C      0.562380000000     0.309060000000     0.034310000000    -0.104565   
C59      C      0.604120000000     0.204710000000     0.961270000000    -0.102591   
C60      C      0.603440000000     0.312130000000     0.957870000000    -0.113601   
C61      C      0.571840000000     0.236590000000     0.987390000000     0.0203452  
C62      C      0.581760000000     0.282110000000     0.994560000000     0.0241916  
C63      C      0.540410000000     0.172010000000     0.034030000000     0.0162082  
C64      C      0.528090000000     0.214100000000     0.005310000000    -0.102063   
C65      C      0.505160000000     0.958750000000     0.650820000000     0.0145747  
C66      C      0.503390000000     0.054170000000     0.836570000000     0.0156329  
C67      C      0.575590000000     0.003880000000     0.832060000000     0.0574865  
C68      C      0.484390000000     0.031450000000     0.793230000000    -0.104066   
C69      C      0.538410000000     0.969680000000     0.689900000000    -0.101674   
C70      C      0.555830000000     0.979120000000     0.789790000000    -0.114466   
C71      C      0.519650000000     0.009700000000     0.717790000000     0.0169674  
C72      C      0.522380000000     0.010190000000     0.764250000000     0.02513    
C73      C      0.477990000000     0.041840000000     0.648770000000     0.0134778  
C74      C      0.507690000000     0.053010000000     0.690680000000    -0.101064   
C75      C      0.484740000000     0.028810000000     0.327840000000     0.0141149  
C76      C      0.579330000000     0.981600000000     0.151060000000     0.0161813  
C77      C      0.509220000000     0.035440000000     0.151550000000     0.056993   
C78      C      0.562190000000     0.958220000000     0.195060000000    -0.105562   
C79      C      0.522410000000     0.040700000000     0.293270000000    -0.101852   
C80      C      0.493040000000     0.013060000000     0.196210000000    -0.114477   
C81      C      0.537710000000     0.997290000000     0.268270000000     0.0179479  
C82      C      0.532830000000     0.991680000000     0.222350000000     0.0264202  
C83      C      0.515580000000     0.947020000000     0.333450000000     0.0133533  
C84      C      0.554120000000     0.958490000000     0.299130000000    -0.102438   
C85      C      0.988810000000     0.473250000000     0.860190000000     0.0130901  
C86      C      0.012230000000     0.559170000000     0.677240000000     0.0157935  
C87      C      0.941460000000     0.506610000000     0.671780000000     0.0559175  
C88      C      0.027920000000     0.533460000000     0.719980000000    -0.10446    
C89      C      0.955850000000     0.485430000000     0.820820000000    -0.102596   
C90      C      0.956780000000     0.481680000000     0.716060000000    -0.1144     
C91      C      0.978670000000     0.520940000000     0.790160000000     0.0188264  
C92      C      0.986800000000     0.513240000000     0.744930000000     0.0251067  
C93      C      0.026470000000     0.552490000000     0.853680000000     0.0136886  
C94      C      0.993690000000     0.564590000000     0.814680000000    -0.10221    
C95      C      0.067720000000     0.557540000000     0.172420000000     0.0130022  
C96      C      0.964820000000     0.520330000000     0.353190000000     0.0167807  
C97      C      0.037480000000     0.569260000000     0.361640000000     0.0567354  
C98      C      0.985640000000     0.495360000000     0.311960000000    -0.105307   
C99      C      0.037920000000     0.569400000000     0.214240000000    -0.100672   
C100     C      0.056840000000     0.547630000000     0.317530000000    -0.113662   
C101     C      0.023730000000     0.526340000000     0.241000000000     0.0162181  
C102     C      0.019520000000     0.526760000000     0.287420000000     0.0253854  
C103     C      0.039100000000     0.475410000000     0.174280000000     0.0143699  
C104     C      0.005080000000     0.486600000000     0.212590000000    -0.101228   
C105     C      0.144560000000     0.968310000000     0.503430000000     0.0141429  
C106     C      0.338250000000     0.038810000000     0.511620000000     0.016666   
C107     C      0.333450000000     0.957960000000     0.476570000000     0.0559525  
C108     C      0.302900000000     0.025480000000     0.548020000000    -0.105701   
C109     C      0.193090000000     0.983520000000     0.489030000000    -0.101197   
C110     C      0.292850000000     0.946970000000     0.508970000000    -0.113289   
C111     C      0.223330000000     0.995900000000     0.529650000000     0.0176494  
C112     C      0.270020000000     0.990450000000     0.527680000000     0.0248947  
C113     C      0.154480000000     0.006740000000     0.579950000000     0.0152493  
C114     C      0.201170000000     0.026660000000     0.565470000000    -0.102079   
C115     C      0.836730000000     0.072460000000     0.499550000000     0.0154513  
C116     C      0.659200000000     0.960920000000     0.511420000000     0.0160733  
C117     C      0.657070000000     0.035180000000     0.464290000000     0.0580137  
C118     C      0.695820000000     0.981990000000     0.543170000000    -0.105016   
C119     C      0.800530000000     0.038140000000     0.482440000000    -0.101468   
C120     C      0.695530000000     0.055610000000     0.494170000000    -0.114066   
C121     C      0.770390000000     0.021380000000     0.521600000000     0.0168913  
C122     C      0.723670000000     0.018090000000     0.517580000000     0.0255226  
C123     C      0.831970000000     0.039170000000     0.578640000000     0.0134638  
C124     C      0.796060000000     0.003220000000     0.563120000000    -0.101507   
C125     C      0.913870000000     0.679910000000     0.532280000000     0.0140962  
C126     C      0.987440000000     0.867880000000     0.498640000000     0.0162395  
C127     C      0.952770000000     0.870480000000     0.579010000000     0.0553641  
C128     C      0.951310000000     0.832330000000     0.484690000000    -0.10479    
C129     C      0.922200000000     0.724980000000     0.559340000000    -0.10269    
C130     C      0.918010000000     0.832030000000     0.564760000000    -0.113825   
C131     C      0.950080000000     0.758600000000     0.530660000000     0.0202532  
C132     C      0.937720000000     0.803850000000     0.525690000000     0.0242146  
C133     C      0.985600000000     0.694580000000     0.485230000000     0.0148988  
C134     C      0.994650000000     0.739500000000     0.511020000000    -0.10202    
C135     C      0.029940000000     0.189310000000     0.578960000000     0.0127168  
C136     C      0.999730000000     0.367600000000     0.484130000000     0.0165562  
C137     C      0.068320000000     0.382600000000     0.536720000000     0.0558712  
C138     C      0.987870000000     0.323670000000     0.510460000000    -0.104517   
C139     C      0.062650000000     0.229850000000     0.567050000000    -0.102258   
C140     C      0.057570000000     0.336790000000     0.562510000000    -0.114044   
C141     C      0.042130000000     0.257800000000     0.528290000000     0.0184889  
C142     C      0.030760000000     0.303490000000     0.532400000000     0.0253391  
C143     C      0.998140000000     0.190590000000     0.498150000000     0.013562   
C144     C      0.031330000000     0.229700000000     0.486130000000    -0.10182    
H1       H      0.812460000000     0.611670000000     0.998790000000     0.0436037  
H2       H      0.696230000000     0.466850000000     0.034540000000     0.0283331  
H3       H      0.861940000000     0.518320000000     0.099140000000     0.0260348  
H4       H      0.798160000000     0.477150000000     0.065580000000     0.0437252  
H5       H      0.738270000000     0.511560000000     0.092140000000     0.044121   
H6       H      0.748360000000     0.587460000000     0.962400000000     0.0494009  
H7       H      0.896920000000     0.606610000000     0.007570000000     0.0360674  
H8       H      0.655810000000     0.492610000000     0.073000000000     0.0356605  
H9       H      0.824200000000     0.476550000000     0.010730000000     0.0539131  
H10      H      0.708820000000     0.606090000000     0.005400000000     0.054313   
H11      H      0.884780000000     0.470640000000     0.067150000000     0.0354797  
H12      H      0.836050000000     0.563000000000     0.967550000000     0.0523277  
H13      H      0.703530000000     0.561000000000     0.082230000000     0.052737   
H14      H      0.666270000000     0.566060000000     0.946610000000     0.0294028  
H15      H      0.866470000000     0.602120000000     0.060970000000     0.0288169  
H16      H      0.241560000000     0.412940000000     0.986630000000     0.0454839  
H17      H      0.367390000000     0.464610000000     0.898670000000     0.0327484  
H18      H      0.206960000000     0.554730000000     0.998280000000     0.0298424  
H19      H      0.239940000000     0.550040000000     0.921350000000     0.0431345  
H20      H      0.307100000000     0.521870000000     0.895450000000     0.0443515  
H21      H      0.298200000000     0.444230000000     0.023370000000     0.049345   
H22      H      0.160310000000     0.428680000000     0.014810000000     0.0362433  
H23      H      0.392420000000     0.521570000000     0.901140000000     0.0347597  
H24      H      0.199180000000     0.506350000000     0.904460000000     0.0510773  
H25      H      0.320140000000     0.501100000000     0.025980000000     0.0543252  
H26      H      0.163870000000     0.564870000000     0.955230000000     0.0352788  
H27      H      0.201500000000     0.425530000000     0.942790000000     0.0524123  
H28      H      0.327490000000     0.551470000000     0.945990000000     0.0509132  
H29      H      0.385080000000     0.451860000000     0.030130000000     0.0305725  
H30      H      0.202570000000     0.466760000000     0.039070000000     0.0270609  
H31      H      0.571090000000     0.782400000000     0.960080000000     0.0473367  
H32      H      0.520120000000     0.673690000000     0.054690000000     0.032527   
H33      H      0.440240000000     0.851420000000     0.964530000000     0.0290284  
H34      H      0.436950000000     0.798550000000     0.028250000000     0.0432781  
H35      H      0.455690000000     0.726430000000     0.050650000000     0.0443898  
H36      H      0.529280000000     0.735620000000     0.920120000000     0.0487101  
H37      H      0.570390000000     0.866110000000     0.942290000000     0.0351243  
H38      H      0.467960000000     0.640450000000     0.050130000000     0.0344388  
H39      H      0.487030000000     0.823600000000     0.055240000000     0.0506599  
H40      H      0.478190000000     0.703200000000     0.924770000000     0.053686   
H41      H      0.443140000000     0.884810000000     0.016400000000     0.0348878  
H42      H      0.567980000000     0.815940000000     0.010590000000     0.0558353  
H43      H      0.431810000000     0.698630000000     0.000910000000     0.0502952  
H44      H      0.540080000000     0.649400000000     0.923140000000     0.0309808  
H45      H      0.519940000000     0.838140000000     0.919930000000     0.0254106  
H46      H      0.637650000000     0.221620000000     0.953310000000     0.0444304  
H47      H      0.495920000000     0.320940000000     0.003340000000     0.0294654  
H48      H      0.558760000000     0.184140000000     0.065210000000     0.0271747  
H49      H      0.505370000000     0.237610000000     0.025080000000     0.04545    
H50      H      0.549090000000     0.286660000000     0.062200000000     0.044913   
H51      H      0.617070000000     0.291930000000     0.928480000000     0.0492756  
H52      H      0.633960000000     0.135880000000     0.968660000000     0.0360181  
H53      H      0.511460000000     0.362110000000     0.046100000000     0.0370379  
H54      H      0.507270000000     0.202410000000     0.975550000000     0.0566923  
H55      H      0.633490000000     0.330540000000     0.973090000000     0.0524887  
H56      H      0.508220000000     0.154360000000     0.045370000000     0.0361565  
H57      H      0.587430000000     0.194380000000     0.928630000000     0.0529599  
H58      H      0.590620000000     0.330030000000     0.049690000000     0.0537652  
H59      H      0.587740000000     0.374890000000     0.920690000000     0.0304539  
H60      H      0.636970000000     0.171340000000     0.019220000000     0.0297837  
H61      H      0.541770000000     0.937430000000     0.710420000000     0.0430239  
H62      H      0.520210000000     0.087390000000     0.826740000000     0.0293157  
H63      H      0.442330000000     0.034160000000     0.660740000000     0.0259429  
H64      H      0.490200000000     0.080200000000     0.711020000000     0.043898   
H65      H      0.462940000000     0.057140000000     0.774800000000     0.0443279  
H66      H      0.585180000000     0.967670000000     0.767950000000     0.0486775  
H67      H      0.520650000000     0.930650000000     0.629770000000     0.0355921  
H68      H      0.474000000000     0.063210000000     0.859330000000     0.03606    
H69      H      0.540660000000     0.068610000000     0.678680000000     0.0530115  
H70      H      0.537030000000     0.947420000000     0.800910000000     0.0523664  
H71      H      0.475960000000     0.073090000000     0.626620000000     0.0356445  
H72      H      0.572970000000     0.978980000000     0.676050000000     0.0509756  
H73      H      0.460580000000     0.003040000000     0.803510000000     0.0524641  
H74      H      0.594840000000     0.977180000000     0.851830000000     0.0290884  
H75      H      0.472160000000     0.945480000000     0.665340000000     0.0286923  
H76      H      0.511010000000     0.069140000000     0.270420000000     0.046687   
H77      H      0.605810000000     0.008010000000     0.160120000000     0.0327051  
H78      H      0.486030000000     0.931450000000     0.314580000000     0.0291862  
H79      H      0.562580000000     0.926100000000     0.280440000000     0.0438662  
H80      H      0.593350000000     0.947010000000     0.214270000000     0.044918   
H81      H      0.471550000000     0.037520000000     0.216340000000     0.0494519  
H82      H      0.476090000000     0.060300000000     0.347990000000     0.0372882  
H83      H      0.596570000000     0.954880000000     0.129560000000     0.0343626  
H84      H      0.585590000000     0.969900000000     0.317780000000     0.0534057  
H85      H      0.469060000000     0.984300000000     0.187260000000     0.0544964  
H86      H      0.528820000000     0.920490000000     0.357690000000     0.037663   
H87      H      0.552700000000     0.054650000000     0.312180000000     0.0548498  
H88      H      0.541400000000     0.926990000000     0.186460000000     0.0505733  
H89      H      0.477640000000     0.043160000000     0.131320000000     0.0305814  
H90      H      0.453130000000     0.018480000000     0.308770000000     0.0274215  
H91      H      0.947480000000     0.452520000000     0.803060000000     0.0437578  
H92      H      0.993520000000     0.591070000000     0.687940000000     0.029138   
H93      H      0.059610000000     0.540070000000     0.838800000000     0.0264099  
H94      H      0.009300000000     0.591140000000     0.792090000000     0.0443957  
H95      H      0.049910000000     0.556390000000     0.741150000000     0.0444699  
H96      H      0.925460000000     0.469250000000     0.734290000000     0.0491047  
H97      H      0.969980000000     0.450470000000     0.884560000000     0.0362055  
H98      H      0.043350000000     0.570640000000     0.658080000000     0.0367558  
H99      H      0.962400000000     0.581230000000     0.829440000000     0.0531485  
H100     H      0.977330000000     0.450460000000     0.706840000000     0.0519103  
H101     H      0.034170000000     0.584620000000     0.873230000000     0.0364205  
H102     H      0.923250000000     0.500090000000     0.834780000000     0.0516822  
H103     H      0.050630000000     0.504270000000     0.709380000000     0.0526419  
H104     H      0.926450000000     0.479590000000     0.649070000000     0.0295189  
H105     H      0.018350000000     0.453020000000     0.846230000000     0.0296028  
H106     H      0.056210000000     0.595720000000     0.234950000000     0.0451621  
H107     H      0.942340000000     0.549040000000     0.340890000000     0.0318725  
H108     H      0.071930000000     0.462770000000     0.189680000000     0.0279348  
H109     H      0.000890000000     0.454340000000     0.232930000000     0.0431224  
H110     H      0.956280000000     0.485340000000     0.289570000000     0.0442153  
H111     H      0.079820000000     0.572570000000     0.299790000000     0.049146   
H112     H      0.071130000000     0.588830000000     0.150510000000     0.0364618  
H113     H      0.942480000000     0.495280000000     0.371850000000     0.0346577  
H114     H      0.970970000000     0.496350000000     0.198000000000     0.0514563  
H115     H      0.080000000000     0.518600000000     0.327670000000     0.0545453  
H116     H      0.024490000000     0.446630000000     0.153560000000     0.0370465  
H117     H      0.005750000000     0.586420000000     0.201990000000     0.0531945  
H118     H      0.003700000000     0.463320000000     0.323310000000     0.0512249  
H119     H      0.067140000000     0.574380000000     0.385230000000     0.030424   
H120     H      0.102910000000     0.548310000000     0.184730000000     0.0271065  
H121     H      0.207990000000     0.956160000000     0.466960000000     0.0462009  
H122     H      0.320220000000     0.056790000000     0.483110000000     0.0318369  
H123     H      0.160220000000     0.973280000000     0.598050000000     0.0297828  
H124     H      0.222860000000     0.028810000000     0.596740000000     0.04342    
H125     H      0.285500000000     0.057950000000     0.559010000000     0.0442192  
H126     H      0.268350000000     0.921960000000     0.493330000000     0.0489226  
H127     H      0.121930000000     0.966990000000     0.472780000000     0.0357736  
H128     H      0.362710000000     0.064060000000     0.527140000000     0.0358076  
H129     H      0.196440000000     0.062180000000     0.551420000000     0.0513479  
H130     H      0.307320000000     0.928070000000     0.538820000000     0.0536171  
H131     H      0.138030000000     0.031350000000     0.604280000000     0.0350858  
H132     H      0.189870000000     0.015040000000     0.467400000000     0.05423    
H133     H      0.320670000000     0.010120000000     0.578080000000     0.0516404  
H134     H      0.354470000000     0.925870000000     0.473120000000     0.0303272  
H135     H      0.146920000000     0.932360000000     0.517060000000     0.026902   
H136     H      0.781180000000     0.053710000000     0.453660000000     0.0461501  
H137     H      0.676870000000     0.939610000000     0.485020000000     0.0314924  
H138     H      0.813440000000     0.070180000000     0.591950000000     0.0284765  
H139     H      0.772530000000     0.996860000000     0.592440000000     0.0432592  
H140     H      0.717830000000     0.953000000000     0.555540000000     0.0439962  
H141     H      0.716250000000     0.081320000000     0.474810000000     0.0490762  
H142     H      0.860780000000     0.081430000000     0.471290000000     0.0348949  
H143     H      0.636930000000     0.937300000000     0.531880000000     0.0344077  
H144     H      0.813580000000     0.970100000000     0.554250000000     0.0507931  
H145     H      0.678740000000     0.076230000000     0.521640000000     0.0552878  
H146     H      0.852570000000     0.024140000000     0.607060000000     0.0362342  
H147     H      0.818710000000     0.007480000000     0.468020000000     0.0554377  
H148     H      0.678770000000     0.998460000000     0.573070000000     0.0508687  
H149     H      0.633570000000     0.064140000000     0.454820000000     0.0299505  
H150     H      0.818680000000     0.104880000000     0.509890000000     0.0258564  
H151     H      0.887870000000     0.739460000000     0.568620000000     0.0441242  
H152     H      0.019800000000     0.849340000000     0.507940000000     0.0279586  
H153     H      0.966140000000     0.703110000000     0.453570000000     0.027741   
H154     H      0.013300000000     0.764020000000     0.488460000000     0.0451754  
H155     H      0.963620000000     0.810980000000     0.455580000000     0.0448749  
H156     H      0.908500000000     0.810580000000     0.594870000000     0.0485803  
H157     H      0.897500000000     0.653890000000     0.555220000000     0.034953   
H158     H      0.995680000000     0.889870000000     0.468560000000     0.0360056  
H159     H      0.018410000000     0.731970000000     0.539910000000     0.0557378  
H160     H      0.885620000000     0.848860000000     0.552800000000     0.0510875  
H161     H      0.019130000000     0.679110000000     0.474560000000     0.0364882  
H162     H      0.941430000000     0.717110000000     0.591260000000     0.0526023  
H163     H      0.920220000000     0.851070000000     0.472120000000     0.0532418  
H164     H      0.933880000000     0.895070000000     0.601590000000     0.0276101  
H165     H      0.889430000000     0.687340000000     0.503880000000     0.0302578  
H166     H      0.067850000000     0.250730000000     0.598470000000     0.0434855  
H167     H      0.020690000000     0.357670000000     0.453840000000     0.028476   
H168     H      0.964090000000     0.206020000000     0.507120000000     0.0266273  
H169     H      0.017680000000     0.250690000000     0.457400000000     0.0443709  
H170     H      0.969220000000     0.299200000000     0.487840000000     0.0446718  
H171     H      0.090420000000     0.321420000000     0.575190000000     0.0489468  
H172     H      0.047710000000     0.166110000000     0.603710000000     0.0349411  
H173     H      0.967290000000     0.383360000000     0.470950000000     0.0352511  
H174     H      0.064080000000     0.214140000000     0.473470000000     0.0536906  
H175     H      0.036090000000     0.344880000000     0.592960000000     0.0520162  
H176     H      0.992790000000     0.168770000000     0.467320000000     0.0366173  
H177     H      0.096770000000     0.215890000000     0.556320000000     0.050795   
H178     H      0.963170000000     0.332820000000     0.538110000000     0.054053   
H179     H      0.080360000000     0.408210000000     0.562530000000     0.0278507  
H180     H      0.998730000000     0.203600000000     0.596110000000     0.0302251  
N1       N      0.658550000000     0.522390000000     0.005350000000    -0.182271   
N2       N      0.895410000000     0.538720000000     0.038420000000    -0.179075   
N3       N      0.393790000000     0.482660000000     0.963820000000    -0.182138   
N4       N      0.159300000000     0.499390000000     0.990660000000    -0.178962   
N5       N      0.511420000000     0.640820000000     0.990520000000    -0.182685   
N6       N      0.506330000000     0.879600000000     0.977970000000    -0.180004   
N7       N      0.543880000000     0.371210000000     0.979770000000    -0.182636   
N8       N      0.571300000000     0.141220000000     0.007980000000    -0.180053   
N9       N      0.537940000000     0.024440000000     0.859570000000    -0.182843   
N10      N      0.495620000000     0.000940000000     0.624010000000    -0.179707   
N11      N      0.541220000000     0.004570000000     0.126230000000    -0.18289    
N12      N      0.499600000000     0.989610000000     0.356760000000    -0.179011   
N13      N      0.980890000000     0.530160000000     0.649270000000    -0.182463   
N14      N      0.007010000000     0.515360000000     0.882720000000    -0.179058   
N15      N      0.001490000000     0.539560000000     0.382610000000    -0.182384   
N16      N      0.048570000000     0.517560000000     0.147380000000    -0.179125   
N17      N      0.361780000000     0.996970000000     0.493890000000    -0.182944   
N18      N      0.125590000000     0.998500000000     0.539490000000    -0.179637   
N19      N      0.632200000000     0.997900000000     0.488900000000    -0.183401   
N20      N      0.860810000000     0.053040000000     0.539510000000    -0.180244   
N21      N      0.971530000000     0.895120000000     0.538550000000    -0.182669   
N22      N      0.957600000000     0.662540000000     0.513010000000    -0.179483   
N23      N      0.026780000000     0.400030000000     0.512700000000    -0.182444   
N24      N      0.015210000000     0.163670000000     0.537700000000    -0.178547   
Ni1      Ni     0.993970000000     0.029390000000     0.579790000000     0.992488   
Ni2      Ni     0.993890000000     0.029080000000     0.498460000000     1.00555    
Ni3      Ni     0.031610000000     0.542240000000     0.519080000000     0.997158   
Ni4      Ni     0.952550000000     0.520680000000     0.512620000000     0.996607   
Ni5      Ni     0.497540000000     0.955020000000     0.492090000000     0.99822    
Ni6      Ni     0.496490000000     0.037480000000     0.488580000000     1.00306    
Ni7      Ni     0.498780000000     0.020730000000     0.994440000000     1.00109    
Ni8      Ni     0.578550000000     0.000470000000     0.991050000000     1.0015     
Ni9      Ni     0.021270000000     0.476980000000     0.016730000000     0.99604    
Ni10     Ni     0.033290000000     0.558620000000     0.013420000000     0.997128   
Ni11     Ni     0.519220000000     0.502880000000     0.024970000000     0.997229   
Ni12     Ni     0.532010000000     0.508580000000     0.944840000000     1.00339    
O1       O      0.981350000000     0.963850000000     0.577220000000    -0.446372   
O2       O      0.006440000000     0.094980000000     0.576750000000    -0.447301   
O3       O      0.928940000000     0.040850000000     0.577240000000    -0.453031   
O4       O      0.058950000000     0.017470000000     0.577070000000    -0.452229   
O5       O      0.058640000000     0.015220000000     0.501110000000    -0.452098   
O6       O      0.929040000000     0.042340000000     0.501280000000    -0.453398   
O7       O      0.005870000000     0.094260000000     0.500810000000    -0.454011   
O8       O      0.981910000000     0.964060000000     0.501260000000    -0.45602    
O9       O      0.022960000000     0.542880000000     0.583960000000    -0.451663   
O10      O      0.034630000000     0.541660000000     0.453760000000    -0.450426   
O11      O      0.012200000000     0.605480000000     0.515670000000    -0.451736   
O12      O      0.045740000000     0.476930000000     0.521650000000    -0.447091   
O13      O      0.972470000000     0.457580000000     0.508710000000    -0.452725   
O14      O      0.937840000000     0.585650000000     0.516760000000    -0.448497   
O15      O      0.959610000000     0.525840000000     0.447730000000    -0.450841   
O16      O      0.951020000000     0.516490000000     0.577930000000    -0.449696   
O17      O      0.500370000000     0.954750000000     0.426940000000    -0.45357    
O18      O      0.495670000000     0.960390000000     0.556970000000    -0.455192   
O19      O      0.430910000000     0.957520000000     0.489460000000    -0.448015   
O20      O      0.563640000000     0.958530000000     0.494710000000    -0.450997   
O21      O      0.562470000000     0.035180000000     0.485730000000    -0.455472   
O22      O      0.431010000000     0.034650000000     0.491620000000    -0.457932   
O23      O      0.498060000000     0.037500000000     0.554260000000    -0.449844   
O24      O      0.494090000000     0.031550000000     0.423260000000    -0.449864   
O25      O      0.517520000000     0.083780000000     0.001140000000    -0.454409   
O26      O      0.485250000000     0.955570000000     0.988920000000    -0.450498   
O27      O      0.502260000000     0.014640000000     0.059070000000    -0.454898   
O28      O      0.500910000000     0.027120000000     0.929060000000    -0.451019   
O29      O      0.575100000000     0.007060000000     0.926350000000    -0.453016   
O30      O      0.576510000000     0.994710000000     0.056550000000    -0.449543   
O31      O      0.559880000000     0.937360000000     0.984520000000    -0.454861   
O32      O      0.592140000000     0.065450000000     0.996520000000    -0.450951   
O33      O      0.009880000000     0.478960000000     0.952290000000    -0.452501   
O34      O      0.032700000000     0.480050000000     0.080550000000    -0.456378   
O35      O      0.957110000000     0.489540000000     0.028480000000    -0.448571   
O36      O      0.086760000000     0.470200000000     0.005780000000    -0.446572   
O37      O      0.097040000000     0.546610000000     0.002250000000    -0.454597   
O38      O      0.968310000000     0.565740000000     0.023620000000    -0.452932   
O39      O      0.044070000000     0.556300000000     0.078520000000    -0.447016   
O40      O      0.022530000000     0.554990000000     0.948960000000    -0.450735   
O41      O      0.528470000000     0.437700000000     0.019510000000    -0.455056   
O42      O      0.509960000000     0.569080000000     0.024990000000    -0.449472   
O43      O      0.455150000000     0.493200000000     0.012140000000    -0.451831   
O44      O      0.584790000000     0.511200000000     0.032510000000    -0.449519   
O45      O      0.596090000000     0.517870000000     0.957660000000    -0.450766   
O46      O      0.466550000000     0.499690000000     0.937280000000    -0.449554   
O47      O      0.522920000000     0.573800000000     0.950290000000    -0.455175   
O48      O      0.541540000000     0.442560000000     0.944830000000    -0.449186   
S1       S      0.710090000000     0.503520000000     0.937610000000    -0.0268903  
S2       S      0.367820000000     0.399870000000     0.977440000000    -0.0319206  
S3       S      0.587710000000     0.680520000000     0.973520000000    -0.0351272  
S4       S      0.530650000000     0.325600000000     0.906820000000    -0.0257636  
S5       S      0.612430000000     0.043550000000     0.817680000000    -0.0298486  
S6       S      0.534140000000     0.084670000000     0.161440000000    -0.0342271  
S7       S      0.900930000000     0.543840000000     0.682190000000    -0.0281893  
S8       S      0.016350000000     0.620160000000     0.351410000000    -0.03528    
S9       S      0.314380000000     0.970430000000     0.426180000000    -0.0334712  
S10      S      0.678030000000     0.015120000000     0.417060000000    -0.0370182  
S11      S      0.994750000000     0.848870000000     0.608640000000    -0.0273971  
S12      S      0.110070000000     0.375370000000     0.500670000000    -0.0276408  


