data_structure

_audit_creation_method RASPA-1.0
_audit_creation_date 2023-5-25
_audit_author_name 'Poobodin Mano'

_cell_length_a    29.0405
_cell_length_b    29.2987
_cell_length_c    29.1216
_cell_angle_alpha 89.997
_cell_angle_beta  89.997
_cell_angle_gamma 89.997
_cell_volume      24778.1

_symmetry_cell_setting          triclinic
_symmetry_space_group_name_Hall 'P 1'
_symmetry_space_group_name_H-M  'P 1'
_symmetry_Int_Tables_number     1

_symmetry_equiv_pos_as_xyz 'x,y,z'

loop_
_atom_site_label
_atom_site_type_symbol
_atom_site_fract_x
_atom_site_fract_y
_atom_site_fract_z
_atom_site_charge
C1       C      0.000400000000     0.911200000000     0.518500000000     0.430279   
C2       C      0.997220000000     0.084980000000     0.528320000000     0.433826   
C3       C      0.911070000000     0.996310000000     0.511910000000     0.43371    
C4       C      0.085110000000     0.000650000000     0.534860000000     0.434253   
C5       C      0.028680000000     0.496670000000     0.620620000000     0.433521   
C6       C      0.010040000000     0.507690000000     0.446820000000     0.429777   
C7       C      0.029120000000     0.587850000000     0.539400000000     0.433899   
C8       C      0.008520000000     0.415290000000     0.528420000000     0.42987    
C9       C      0.480840000000     0.998970000000     0.396400000000     0.433997   
C10      C      0.506950000000     0.002640000000     0.569700000000     0.430113   
C11      C      0.407900000000     0.993810000000     0.496050000000     0.430147   
C12      C      0.581080000000     0.008630000000     0.469720000000     0.429511   
C13      C      0.541540000000     0.093620000000     0.968360000000     0.429997   
C14      C      0.516950000000     0.923300000000     0.996020000000     0.432843   
C15      C      0.521270000000     0.023040000000     0.068370000000     0.42984    
C16      C      0.538330000000     0.993400000000     0.896560000000     0.43386    
C17      C      0.017900000000     0.504600000000     0.946560000000     0.428921   
C18      C      0.991650000000     0.525510000000     0.118340000000     0.43298    
C19      C      0.918990000000     0.506530000000     0.020620000000     0.432583   
C20      C      0.091980000000     0.523840000000     0.044740000000     0.42932    
C21      C      0.510880000000     0.418500000000     0.991200000000     0.4329     
C22      C      0.506550000000     0.592670000000     0.989300000000     0.428759   
C23      C      0.420950000000     0.502640000000     0.000840000000     0.433584   
C24      C      0.595140000000     0.509320000000     0.979790000000     0.430791   
C25      C      0.667850000000     0.543350000000     0.006160000000     0.0160222  
C26      C      0.851840000000     0.459690000000     0.997550000000     0.0234182  
C27      C      0.841390000000     0.539100000000     0.031150000000     0.189394   
C28      C      0.815090000000     0.469850000000     0.960770000000    -0.112559   
C29      C      0.709490000000     0.517610000000     0.024200000000    -0.101596   
C30      C      0.805320000000     0.549420000000     0.994520000000    -0.153078   
C31      C      0.736590000000     0.497800000000     0.984490000000     0.016585   
C32      C      0.782370000000     0.505790000000     0.978870000000     0.0456307  
C33      C      0.666090000000     0.493870000000     0.935170000000     0.0132997  
C34      C      0.709210000000     0.467940000000     0.951840000000    -0.101288   
C35      C      0.165360000000     0.496350000000     0.078780000000     0.0130132  
C36      C      0.343240000000     0.512880000000     0.968110000000     0.0250984  
C37      C      0.353580000000     0.478840000000     0.047270000000     0.188583   
C38      C      0.304150000000     0.543380000000     0.985470000000    -0.113507   
C39      C      0.208570000000     0.481070000000     0.052820000000    -0.0980398  
C40      C      0.312560000000     0.506860000000     0.064750000000    -0.152306   
C41      C      0.233820000000     0.521070000000     0.030900000000     0.0112356  
C42      C      0.280560000000     0.520850000000     0.025960000000     0.0470108  
C43      C      0.162870000000     0.569380000000     0.033920000000     0.013483   
C44      C      0.203840000000     0.554420000000     0.004510000000    -0.098746   
C45      C      0.493670000000     0.664790000000     0.947580000000     0.0134634  
C46      C      0.543860000000     0.849680000000     0.028110000000     0.0251036  
C47      C      0.465150000000     0.856580000000     0.991490000000     0.19056    
C48      C      0.551320000000     0.803680000000     0.004370000000    -0.112307   
C49      C      0.469390000000     0.709270000000     0.961240000000    -0.0994534  
C50      C      0.473000000000     0.812000000000     0.964900000000    -0.154689   
C51      C      0.499210000000     0.735630000000     0.994640000000     0.0131701  
C52      C      0.505980000000     0.781530000000     0.991010000000     0.0486041  
C53      C      0.536160000000     0.663690000000     0.023450000000     0.0127549  
C54      C      0.513900000000     0.709020000000     0.036760000000    -0.0984274  
C55      C      0.514670000000     0.165630000000     0.932890000000     0.0143158  
C56      C      0.531730000000     0.346520000000     0.030780000000     0.0236695  
C57      C      0.489120000000     0.345210000000     0.954880000000     0.189085   
C58      C      0.564350000000     0.308660000000     0.013960000000    -0.112343   
C59      C      0.498470000000     0.207320000000     0.959720000000    -0.0991564  
C60      C      0.521540000000     0.307970000000     0.937510000000    -0.152459   
C61      C      0.539280000000     0.233940000000     0.978390000000     0.0134047  
C62      C      0.540680000000     0.280460000000     0.977250000000     0.0466334  
C63      C      0.588730000000     0.163580000000     0.977450000000     0.0128431  
C64      C      0.574190000000     0.205910000000     0.005150000000    -0.0997432  
C65      C      0.491920000000     0.965790000000     0.644130000000     0.0141841  
C66      C      0.585580000000     0.997900000000     0.826240000000     0.0253462  
C67      C      0.507940000000     0.958610000000     0.825510000000     0.189562   
C68      C      0.573570000000     0.024000000000     0.782110000000    -0.11339    
C69      C      0.524900000000     0.951710000000     0.682280000000    -0.100154   
C70      C      0.496010000000     0.982130000000     0.780140000000    -0.152375   
C71      C      0.541920000000     0.993290000000     0.707950000000     0.0135118  
C72      C      0.538930000000     0.996970000000     0.754400000000     0.0469883  
C73      C      0.529490000000     0.043750000000     0.640340000000     0.0134718  
C74      C      0.563670000000     0.029800000000     0.678220000000    -0.100656   
C75      C      0.478160000000     0.054580000000     0.135100000000     0.0123653  
C76      C      0.484820000000     0.956660000000     0.323170000000     0.0251208  
C77      C      0.448030000000     0.034400000000     0.326110000000     0.188583   
C78      C      0.514470000000     0.970520000000     0.282150000000    -0.112138   
C79      C      0.458790000000     0.028920000000     0.176850000000    -0.0981875  
C80      C      0.473590000000     0.048430000000     0.282120000000    -0.151595   
C81      C      0.496560000000     0.010640000000     0.208150000000     0.0108069  
C82      C      0.490820000000     0.007700000000     0.254570000000     0.0456969  
C83      C      0.554860000000     0.016460000000     0.145970000000     0.0136469  
C84      C      0.535630000000     0.986120000000     0.184030000000    -0.099007   
C85      C      0.999490000000     0.530920000000     0.868310000000     0.0144305  
C86      C      0.076710000000     0.479540000000     0.688610000000     0.0241168  
C87      C      0.001770000000     0.524060000000     0.695860000000     0.189132   
C88      C      0.066560000000     0.454890000000     0.734180000000    -0.113401   
C89      C      0.030760000000     0.542210000000     0.827930000000    -0.101894   
C90      C      0.991630000000     0.499250000000     0.740780000000    -0.15305    
C91      C      0.048270000000     0.498580000000     0.806540000000     0.0166944  
C92      C      0.035940000000     0.484610000000     0.763670000000     0.0466483  
C93      C      0.043680000000     0.457190000000     0.880990000000     0.0125767  
C94      C      0.074540000000     0.468210000000     0.839400000000    -0.101649   
C95      C      0.965360000000     0.491060000000     0.376660000000     0.0127569  
C96      C      0.994370000000     0.574810000000     0.186880000000     0.0258335  
C97      C      0.955410000000     0.497790000000     0.190060000000     0.188164   
C98      C      0.019330000000     0.565440000000     0.232130000000    -0.113423   
C99      C      0.949600000000     0.520770000000     0.336390000000    -0.0991577  
C100     C      0.976510000000     0.488960000000     0.237530000000    -0.151541   
C101     C      0.990170000000     0.536640000000     0.307810000000     0.0123874  
C102     C      0.991450000000     0.532730000000     0.261240000000     0.0464434  
C103     C      0.044700000000     0.526940000000     0.372190000000     0.0138272  
C104     C      0.028090000000     0.559710000000     0.334750000000    -0.100479   
C105     C      0.340280000000     0.947980000000     0.520170000000     0.0121068  
C106     C      0.158910000000     0.033770000000     0.510030000000     0.0258907  
C107     C      0.154900000000     0.983380000000     0.580670000000     0.189934   
C108     C      0.200990000000     0.008020000000     0.492960000000    -0.112887   
C109     C      0.304620000000     0.958870000000     0.557860000000    -0.1003     
C110     C      0.198340000000     0.957480000000     0.564560000000    -0.153083   
C111     C      0.272360000000     0.995650000000     0.540580000000     0.0165331  
C112     C      0.226820000000     0.987660000000     0.533190000000     0.0471329  
C113     C      0.330500000000     0.027420000000     0.487170000000     0.0135191  
C114     C      0.296160000000     0.038810000000     0.524960000000    -0.0998794  
C115     C      0.651260000000     0.056070000000     0.473310000000     0.0137632  
C116     C      0.844120000000     0.970590000000     0.466390000000     0.0248003  
C117     C      0.833410000000     0.009620000000     0.543370000000     0.191462   
C118     C      0.802030000000     0.995750000000     0.447380000000    -0.112201   
C119     C      0.693250000000     0.046360000000     0.503500000000    -0.0985071  
C120     C      0.793790000000     0.038170000000     0.523630000000    -0.155245   
C121     C      0.723590000000     0.010680000000     0.481020000000     0.0116803  
C122     C      0.770310000000     0.011990000000     0.485400000000     0.0490014  
C123     C      0.654440000000     0.977100000000     0.439790000000     0.0131166  
C124     C      0.699320000000     0.967270000000     0.465670000000    -0.097686   
C125     C      0.023950000000     0.840950000000     0.477260000000     0.0118202  
C126     C      0.999130000000     0.661180000000     0.568450000000     0.0259075  
C127     C      0.076590000000     0.657340000000     0.528790000000     0.189632   
C128     C      0.985720000000     0.702620000000     0.539920000000    -0.112428   
C129     C      0.057200000000     0.803980000000     0.494950000000    -0.0994016  
C130     C      0.064200000000     0.699810000000     0.500020000000    -0.153224   
C131     C      0.032510000000     0.774360000000     0.529800000000     0.0146344  
C132     C      0.028380000000     0.728340000000     0.524800000000     0.0470165  
C133     C      0.977950000000     0.836330000000     0.550750000000     0.0138565  
C134     C      0.010880000000     0.800290000000     0.569270000000    -0.0995691  
C135     C      0.034130000000     0.341050000000     0.497090000000     0.0129266  
C136     C      0.986740000000     0.154930000000     0.574150000000     0.0254657  
C137     C      0.025830000000     0.157440000000     0.496150000000     0.189278   
C138     C      0.962370000000     0.200260000000     0.564060000000    -0.113954   
C139     C      0.044050000000     0.295450000000     0.520600000000    -0.0994649  
C140     C      0.002910000000     0.203450000000     0.486520000000    -0.153546   
C141     C      0.999980000000     0.273130000000     0.537290000000     0.0132934  
C142     C      0.990900000000     0.227970000000     0.530710000000     0.0474039  
C143     C      0.959410000000     0.347720000000     0.541130000000     0.0136883  
C144     C      0.969760000000     0.303250000000     0.566820000000    -0.100403   
H1       H      0.729780000000     0.539990000000     0.047220000000     0.0598113  
H2       H      0.835210000000     0.441250000000     0.026520000000     0.036566   
H3       H      0.677170000000     0.521610000000     0.911540000000     0.0297768  
H4       H      0.729490000000     0.458210000000     0.921010000000     0.0429317  
H5       H      0.797470000000     0.437290000000     0.952290000000     0.0463403  
H6       H      0.780850000000     0.575940000000     0.006520000000     0.0657173  
H7       H      0.646840000000     0.555680000000     0.035580000000     0.0358222  
H8       H      0.878210000000     0.436650000000     0.982370000000     0.0335407  
H9       H      0.698640000000     0.436250000000     0.969970000000     0.0508731  
H10      H      0.823090000000     0.564680000000     0.964370000000     0.0626158  
H11      H      0.643760000000     0.469970000000     0.915540000000     0.0340488  
H12      H      0.697260000000     0.488870000000     0.045940000000     0.0599758  
H13      H      0.832030000000     0.482770000000     0.929110000000     0.0517157  
H14      H      0.860110000000     0.571570000000     0.038160000000     0.00175967 
H15      H      0.680210000000     0.573970000000     0.987220000000     0.0262261  
H16      H      0.842840000000     0.525050000000     0.096050000000     0.145342   
H17      H      0.230080000000     0.460490000000     0.076350000000     0.0509195  
H18      H      0.328170000000     0.481320000000     0.953080000000     0.0367089  
H19      H      0.175910000000     0.589660000000     0.063490000000     0.0289774  
H20      H      0.223110000000     0.585880000000     0.995240000000     0.0432737  
H21      H      0.280330000000     0.548690000000     0.956110000000     0.0472801  
H22      H      0.295400000000     0.488170000000     0.092990000000     0.0675835  
H23      H      0.145020000000     0.465790000000     0.088830000000     0.0374649  
H24      H      0.361570000000     0.531360000000     0.940200000000     0.0344116  
H25      H      0.191320000000     0.537950000000     0.972460000000     0.0517764  
H26      H      0.326120000000     0.538680000000     0.080550000000     0.0625275  
H27      H      0.140520000000     0.592000000000     0.012880000000     0.037658   
H28      H      0.197820000000     0.457660000000     0.024760000000     0.0572438  
H29      H      0.318090000000     0.577090000000     0.996160000000     0.0531956  
H30      H      0.378730000000     0.476270000000     0.076080000000     0.00173805 
H31      H      0.176540000000     0.513530000000     0.110960000000     0.0273126  
H32      H      0.366130000000     0.415840000000     0.031570000000     0.146722   
H33      H      0.462980000000     0.728650000000     0.929080000000     0.0442613  
H34      H      0.530690000000     0.843010000000     0.063330000000     0.0334102  
H35      H      0.570820000000     0.670970000000     0.008950000000     0.0271098  
H36      H      0.537310000000     0.727990000000     0.059920000000     0.0451531  
H37      H      0.573470000000     0.782020000000     0.026320000000     0.0471063  
H38      H      0.438800000000     0.795660000000     0.960020000000     0.0686408  
H39      H      0.469700000000     0.644310000000     0.926050000000     0.0354677  
H40      H      0.577580000000     0.867240000000     0.031820000000     0.0336019  
H41      H      0.482510000000     0.701640000000     0.057320000000     0.0559975  
H42      H      0.487670000000     0.819690000000     0.930490000000     0.0611502  
H43      H      0.541420000000     0.642990000000     0.055020000000     0.0368122  
H44      H      0.435700000000     0.701480000000     0.977570000000     0.053125   
H45      H      0.571190000000     0.809710000000     0.972310000000     0.0545726  
H46      H      0.443970000000     0.879050000000     0.968910000000     0.00020384 
H47      H      0.524330000000     0.673220000000     0.926280000000     0.031059   
H48      H      0.430310000000     0.877000000000     0.044290000000     0.151442   
H49      H      0.474660000000     0.227470000000     0.938090000000     0.0541993  
H50      H      0.503340000000     0.330530000000     0.050760000000     0.0367046  
H51      H      0.609730000000     0.174960000000     0.947620000000     0.0284692  
H52      H      0.606010000000     0.225680000000     0.012400000000     0.0429414  
H53      H      0.574090000000     0.288060000000     0.044440000000     0.0470147  
H54      H      0.504460000000     0.287410000000     0.910540000000     0.0658468  
H55      H      0.484280000000     0.145140000000     0.922220000000     0.0371767  
H56      H      0.551180000000     0.369200000000     0.054460000000     0.034677   
H57      H      0.558720000000     0.195150000000     0.038340000000     0.0518535  
H58      H      0.551060000000     0.324730000000     0.919980000000     0.062009   
H59      H      0.610810000000     0.141680000000     0.999530000000     0.0364615  
H60      H      0.477670000000     0.195430000000     0.989460000000     0.0594462  
H61      H      0.596110000000     0.324150000000     0.999440000000     0.0516453  
H62      H      0.479720000000     0.366760000000     0.924770000000     0.00192915 
H63      H      0.532030000000     0.177690000000     0.901070000000     0.0264902  
H64      H      0.426580000000     0.349770000000     0.977360000000     0.146897   
H65      H      0.508590000000     0.925680000000     0.704610000000     0.0530665  
H66      H      0.605000000000     0.966500000000     0.816950000000     0.0374101  
H67      H      0.500210000000     0.062360000000     0.656370000000     0.0305756  
H68      H      0.572640000000     0.060970000000     0.698000000000     0.0431729  
H69      H      0.606130000000     0.029300000000     0.762740000000     0.0474674  
H70      H      0.472740000000     0.959920000000     0.759870000000     0.0677113  
H71      H      0.483120000000     0.935310000000     0.623150000000     0.0367535  
H72      H      0.608400000000     0.019700000000     0.847690000000     0.03287    
H73      H      0.595680000000     0.016160000000     0.662410000000     0.0517673  
H74      H      0.475770000000     0.013380000000     0.787990000000     0.0633225  
H75      H      0.547100000000     0.067520000000     0.616270000000     0.0343314  
H76      H      0.555180000000     0.934690000000     0.666400000000     0.0569618  
H77      H      0.558800000000     0.057900000000     0.790870000000     0.0527125  
H78      H      0.475380000000     0.955240000000     0.845540000000     0.000262955
H79      H      0.459450000000     0.978040000000     0.660230000000     0.0272819  
H80      H      0.525890000000     0.898240000000     0.845740000000     0.145592   
H81      H      0.433760000000     0.051320000000     0.194500000000     0.0491628  
H82      H      0.452760000000     0.940250000000     0.310330000000     0.0376327  
H83      H      0.570190000000     0.047560000000     0.161730000000     0.0285498  
H84      H      0.564670000000     0.978480000000     0.207650000000     0.0428151  
H85      H      0.519930000000     0.939270000000     0.261180000000     0.0472889  
H86      H      0.451280000000     0.071840000000     0.262270000000     0.0683462  
H87      H      0.450020000000     0.060530000000     0.109920000000     0.0377874  
H88      H      0.504080000000     0.930880000000     0.343570000000     0.0345864  
H89      H      0.522820000000     0.953500000000     0.169290000000     0.0524979  
H90      H      0.504270000000     0.068790000000     0.292210000000     0.062268   
H91      H      0.582940000000     0.997530000000     0.128380000000     0.0374356  
H92      H      0.438800000000     0.999140000000     0.164120000000     0.0558447  
H93      H      0.548460000000     0.983060000000     0.294370000000     0.0525954  
H94      H      0.444700000000     0.065520000000     0.347880000000     0.00101885 
H95      H      0.490300000000     0.088580000000     0.146990000000     0.0278614  
H96      H      0.386080000000     0.016920000000     0.343260000000     0.146831   
H97      H      0.013080000000     0.565160000000     0.803300000000     0.0581189  
H98      H      0.100320000000     0.508630000000     0.695540000000     0.0369821  
H99      H      0.015820000000     0.433670000000     0.869670000000     0.0297909  
H100     H      0.085330000000     0.435380000000     0.823780000000     0.0437551  
H101     H      0.100150000000     0.447340000000     0.750680000000     0.0473705  
H102     H      0.968850000000     0.520170000000     0.762950000000     0.0657633  
H103     H      0.988980000000     0.563300000000     0.885190000000     0.0377481  
H104     H      0.094990000000     0.455410000000     0.665430000000     0.0337072  
H105     H      0.106000000000     0.486330000000     0.851250000000     0.0516604  
H106     H      0.971530000000     0.467950000000     0.732750000000     0.0616976  
H107     H      0.064760000000     0.438900000000     0.907030000000     0.0365734  
H108     H      0.060810000000     0.561830000000     0.840970000000     0.0568606  
H109     H      0.048820000000     0.422010000000     0.727180000000     0.0521084  
H110     H      0.968020000000     0.529440000000     0.678450000000     0.00128049 
H111     H      0.967660000000     0.514530000000     0.854910000000     0.0264484  
H112     H      0.020550000000     0.584570000000     0.676760000000     0.148035   
H113     H      0.922850000000     0.502600000000     0.316340000000     0.0507168  
H114     H      0.962090000000     0.593950000000     0.194180000000     0.0371196  
H115     H      0.061540000000     0.496990000000     0.355740000000     0.0304704  
H116     H      0.058410000000     0.568590000000     0.313320000000     0.0430417  
H117     H      0.023910000000     0.598860000000     0.249630000000     0.0471687  
H118     H      0.952270000000     0.468090000000     0.258060000000     0.0683559  
H119     H      0.935890000000     0.485620000000     0.400410000000     0.0368979  
H120     H      0.016780000000     0.596870000000     0.165270000000     0.0339023  
H121     H      0.014670000000     0.591560000000     0.350590000000     0.0510276  
H122     H      0.007790000000     0.467570000000     0.232890000000     0.0622661  
H123     H      0.071060000000     0.544870000000     0.393250000000     0.0355148  
H124     H      0.932430000000     0.551620000000     0.350560000000     0.0546565  
H125     H      0.053830000000     0.550500000000     0.225170000000     0.0529893  
H126     H      0.953580000000     0.464300000000     0.171960000000     0.00136342 
H127     H      0.975300000000     0.457060000000     0.362890000000     0.0276111  
H128     H      0.895460000000     0.513080000000     0.165410000000     0.144778   
H129     H      0.286540000000     0.926700000000     0.566820000000     0.0447295  
H130     H      0.170800000000     0.064330000000     0.529340000000     0.0337017  
H131     H      0.311090000000     0.015860000000     0.456370000000     0.0265245  
H132     H      0.272060000000     0.066000000000     0.513760000000     0.0471558  
H133     H      0.222150000000     0.030480000000     0.470770000000     0.0478708  
H134     H      0.217770000000     0.946650000000     0.595570000000     0.0689537  
H135     H      0.366470000000     0.924300000000     0.534620000000     0.036403   
H136     H      0.138800000000     0.046280000000     0.480070000000     0.0326397  
H137     H      0.315360000000     0.053260000000     0.554620000000     0.0570467  
H138     H      0.187970000000     0.926300000000     0.545420000000     0.0608018  
H139     H      0.349370000000     0.058960000000     0.477380000000     0.0371328  
H140     H      0.322660000000     0.971340000000     0.589090000000     0.0533621  
H141     H      0.189260000000     0.979570000000     0.470580000000     0.0562118  
H142     H      0.132140000000     0.958130000000     0.598200000000    -0.00108602 
H143     H      0.322500000000     0.930070000000     0.491540000000     0.0305127  
H144     H      0.139020000000     0.028470000000     0.626590000000     0.152339   
H145     H      0.711900000000     0.079200000000     0.508020000000     0.042887   
H146     H      0.832860000000     0.936120000000     0.477770000000     0.0335427  
H147     H      0.663590000000     0.989090000000     0.404720000000     0.0262754  
H148     H      0.721020000000     0.944810000000     0.444090000000     0.0447647  
H149     H      0.784830000000     0.973850000000     0.421580000000     0.0467846  
H150     H      0.769910000000     0.046140000000     0.552350000000     0.0675635  
H151     H      0.628720000000     0.080840000000     0.491540000000     0.0360219  
H152     H      0.869480000000     0.965510000000     0.438240000000     0.03386    
H153     H      0.690780000000     0.947320000000     0.497010000000     0.0574619  
H154     H      0.807360000000     0.070890000000     0.509820000000     0.0607589  
H155     H      0.634660000000     0.944850000000     0.435810000000     0.0361576  
H156     H      0.681890000000     0.033950000000     0.537760000000     0.0534748  
H157     H      0.814260000000     0.026390000000     0.428450000000     0.0534332  
H158     H      0.851730000000     0.031690000000     0.568700000000    -0.00152401 
H159     H      0.663020000000     0.072220000000     0.440770000000     0.0288116  
H160     H      0.840860000000     0.957990000000     0.584220000000     0.151946   
H161     H      0.069540000000     0.784420000000     0.464720000000     0.0436726  
H162     H      0.013760000000     0.673390000000     0.601550000000     0.0334894  
H163     H      0.948330000000     0.818650000000     0.534310000000     0.0272614  
H164     H      0.993370000000     0.778340000000     0.594880000000     0.0464474  
H165     H      0.960350000000     0.723530000000     0.558980000000     0.0475134  
H166     H      0.096550000000     0.719090000000     0.493770000000     0.06826    
H167     H      0.043510000000     0.864810000000     0.454870000000     0.0367571  
H168     H      0.967670000000     0.641210000000     0.576750000000     0.0334239  
H169     H      0.038860000000     0.817880000000     0.588390000000     0.0569167  
H170     H      0.050110000000     0.688970000000     0.466250000000     0.0600369  
H171     H      0.964110000000     0.856690000000     0.579840000000     0.0373298  
H172     H      0.087430000000     0.820390000000     0.511550000000     0.0527648  
H173     H      0.967540000000     0.690570000000     0.508590000000     0.0557085  
H174     H      0.098150000000     0.634810000000     0.506620000000    -0.000856265
H175     H      0.997040000000     0.824270000000     0.455860000000     0.0295979  
H176     H      0.115250000000     0.642670000000     0.580880000000     0.151835   
H177     H      0.064970000000     0.273710000000     0.497540000000     0.0532773  
H178     H      0.018310000000     0.161920000000     0.594640000000     0.0370456  
H179     H      0.937050000000     0.339900000000     0.511110000000     0.0294652  
H180     H      0.936060000000     0.287170000000     0.574750000000     0.0427065  
H181     H      0.957740000000     0.217830000000     0.597530000000     0.0469061  
H182     H      0.024460000000     0.223670000000     0.462620000000     0.067042   
H183     H      0.067280000000     0.358730000000     0.490180000000     0.0377719  
H184     H      0.963440000000     0.133570000000     0.595550000000     0.0329568  
H185     H      0.987680000000     0.310850000000     0.599670000000     0.0514825  
H186     H      0.970190000000     0.197010000000     0.467780000000     0.0619492  
H187     H      0.939730000000     0.370510000000     0.564540000000     0.0363004  
H188     H      0.066030000000     0.302100000000     0.551130000000     0.0565997  
H189     H      0.927850000000     0.193650000000     0.548980000000     0.0517531  
H190     H      0.027450000000     0.138770000000     0.462810000000     0.000731036
H191     H      0.017800000000     0.333890000000     0.463300000000     0.0275872  
H192     H      0.087040000000     0.135340000000     0.510460000000     0.147286   
N1       N      0.872480000000     0.502370000000     0.015160000000    -0.198947   
N2       N      0.641460000000     0.514230000000     0.974380000000    -0.18006    
N3       N      0.374230000000     0.500240000000     0.006150000000    -0.198895   
N4       N      0.138310000000     0.528990000000     0.051320000000    -0.178801   
N5       N      0.509790000000     0.877750000000     0.003290000000    -0.19946    
N6       N      0.508840000000     0.639230000000     0.988480000000    -0.17873    
N7       N      0.511760000000     0.371830000000     0.991680000000    -0.199065   
N8       N      0.547830000000     0.139150000000     0.960390000000    -0.179317   
N9       N      0.543170000000     0.984930000000     0.850760000000    -0.19928    
N10      N      0.511550000000     0.003150000000     0.616310000000    -0.179171   
N11      N      0.472790000000     0.997400000000     0.350170000000    -0.198948   
N12      N      0.517470000000     0.030070000000     0.114660000000    -0.178809   
N13      N      0.034160000000     0.497310000000     0.667220000000    -0.198753   
N14      N      0.022440000000     0.498920000000     0.900190000000    -0.179095   
N15      N      0.982840000000     0.531480000000     0.164010000000    -0.198967   
N16      N      0.005620000000     0.510950000000     0.400290000000    -0.179299   
N17      N      0.131480000000     0.004640000000     0.541020000000    -0.200034   
N18      N      0.361410000000     0.990270000000     0.502170000000    -0.179095   
N19      N      0.864410000000     0.994590000000     0.506120000000    -0.199439   
N20      N      0.627370000000     0.013080000000     0.462640000000    -0.179002   
N21      N      0.034270000000     0.633910000000     0.544220000000    -0.20004    
N22      N      0.001400000000     0.864660000000     0.515970000000    -0.179225   
N23      N      0.000010000000     0.131440000000     0.531320000000    -0.199079   
N24      N      0.002270000000     0.369210000000     0.524600000000    -0.179136   
Ni1      Ni     0.992590000000     0.995750000000     0.563730000000     0.999626   
Ni2      Ni     0.003750000000     0.000430000000     0.482950000000     0.998014   
Ni3      Ni     0.059560000000     0.497220000000     0.528810000000     0.994745   
Ni4      Ni     0.978690000000     0.505940000000     0.538560000000     1.00466    
Ni5      Ni     0.497980000000     0.960520000000     0.483350000000     0.998093   
Ni6      Ni     0.491000000000     0.041520000000     0.482660000000     0.999957   
Ni7      Ni     0.489160000000     0.013250000000     0.977220000000     0.997221   
Ni8      Ni     0.569850000000     0.003680000000     0.987450000000     0.998659   
Ni9      Ni     0.008710000000     0.474980000000     0.037880000000     0.983815   
Ni10     Ni     0.002230000000     0.554970000000     0.027270000000     1.00827    
Ni11     Ni     0.513320000000     0.506190000000     0.030830000000     1.00025    
Ni12     Ni     0.502980000000     0.504980000000     0.949780000000     0.997457   
O1       O      0.991470000000     0.930740000000     0.556870000000    -0.452217   
O2       O      0.993740000000     0.061080000000     0.565050000000    -0.452967   
O3       O      0.927790000000     0.998020000000     0.552580000000    -0.455984   
O4       O      0.058610000000     0.993970000000     0.569490000000    -0.45221    
O5       O      0.068240000000     0.005000000000     0.494480000000    -0.45561    
O6       O      0.937900000000     0.995730000000     0.476880000000    -0.450533   
O7       O      0.999970000000     0.065430000000     0.489010000000    -0.45416    
O8       O      0.008220000000     0.935150000000     0.482480000000    -0.451471   
O9       O      0.063640000000     0.490490000000     0.594370000000    -0.450563   
O10      O      0.050330000000     0.504960000000     0.464460000000    -0.453483   
O11      O      0.064680000000     0.562280000000     0.534740000000    -0.452607   
O12      O      0.048620000000     0.432780000000     0.522530000000    -0.448792   
O13      O      0.973930000000     0.440940000000     0.537250000000    -0.454689   
O14      O      0.988690000000     0.570370000000     0.540450000000    -0.455827   
O15      O      0.974170000000     0.507250000000     0.472580000000    -0.449701   
O16      O      0.988840000000     0.504180000000     0.603310000000    -0.45645    
O17      O      0.488450000000     0.961830000000     0.418400000000    -0.453825   
O18      O      0.506520000000     0.964400000000     0.548360000000    -0.451949   
O19      O      0.432740000000     0.957690000000     0.493610000000    -0.449838   
O20      O      0.562880000000     0.968830000000     0.472910000000    -0.448376   
O21      O      0.556040000000     0.044480000000     0.473160000000    -0.453644   
O22      O      0.426380000000     0.033350000000     0.492210000000    -0.453559   
O23      O      0.501870000000     0.040250000000     0.547710000000    -0.450011   
O24      O      0.480460000000     0.037330000000     0.417650000000    -0.452658   
O25      O      0.501260000000     0.076200000000     0.964330000000    -0.452118   
O26      O      0.482310000000     0.949630000000     0.989640000000    -0.455965   
O27      O      0.485950000000     0.026830000000     0.042050000000    -0.446904   
O28      O      0.498030000000     0.998620000000     0.913710000000    -0.452849   
O29      O      0.574150000000     0.995830000000     0.922190000000    -0.452556   
O30      O      0.560490000000     0.012320000000     0.051510000000    -0.455729   
O31      O      0.558010000000     0.939560000000     0.995670000000    -0.45012    
O32      O      0.575900000000     0.068470000000     0.979590000000    -0.45008    
O33      O      0.022960000000     0.470430000000     0.973640000000    -0.447781   
O34      O      0.993470000000     0.485170000000     0.101300000000    -0.450018   
O35      O      0.944290000000     0.470760000000     0.023580000000    -0.448488   
O36      O      0.072800000000     0.484920000000     0.051360000000    -0.446845   
O37      O      0.067790000000     0.558150000000     0.031990000000    -0.453721   
O38      O      0.937080000000     0.546330000000     0.023470000000    -0.456387   
O39      O      0.997350000000     0.560480000000     0.092530000000    -0.453941   
O40      O      0.007340000000     0.543930000000     0.962730000000    -0.453604   
O41      O      0.517850000000     0.440880000000     0.028410000000    -0.45175    
O42      O      0.509520000000     0.571400000000     0.027680000000    -0.450761   
O43      O      0.447470000000     0.501230000000     0.036060000000    -0.452603   
O44      O      0.577860000000     0.511420000000     0.020170000000    -0.454118   
O45      O      0.569080000000     0.504270000000     0.944560000000    -0.449403   
O46      O      0.438070000000     0.505750000000     0.960410000000    -0.453513   
O47      O      0.503190000000     0.570410000000     0.951510000000    -0.450681   
O48      O      0.502670000000     0.439720000000     0.953590000000    -0.454439   
O49      O      0.819100000000     0.525160000000     0.071540000000    -0.294019   
O50      O      0.338160000000     0.434800000000     0.036140000000    -0.291951   
O51      O      0.440410000000     0.847100000000     0.031810000000    -0.292225   
O52      O      0.449000000000     0.324720000000     0.972130000000    -0.292573   
O53      O      0.524940000000     0.914780000000     0.815990000000    -0.293149   
O54      O      0.403750000000     0.019290000000     0.314170000000    -0.292385   
O55      O      0.021190000000     0.566810000000     0.705800000000    -0.293837   
O56      O      0.910500000000     0.514500000000     0.195980000000    -0.291558   
O57      O      0.167870000000     0.017290000000     0.612170000000    -0.291651   
O58      O      0.815240000000     0.971390000000     0.566130000000    -0.292578   
O59      O      0.102480000000     0.670970000000     0.567130000000    -0.292075   
O60      O      0.070900000000     0.165200000000     0.511730000000    -0.292706   


