data_structure

_audit_creation_method RASPA-1.0
_audit_creation_date 2023-5-25
_audit_author_name 'Poobodin Mano'

_cell_length_a    29.1255
_cell_length_b    29.2486
_cell_length_c    28.9754
_cell_angle_alpha 89.997
_cell_angle_beta  89.997
_cell_angle_gamma 89.997
_cell_volume      24683.6

_symmetry_cell_setting          triclinic
_symmetry_space_group_name_Hall 'P 1'
_symmetry_space_group_name_H-M  'P 1'
_symmetry_Int_Tables_number     1

_symmetry_equiv_pos_as_xyz 'x,y,z'

loop_
_atom_site_label
_atom_site_type_symbol
_atom_site_fract_x
_atom_site_fract_y
_atom_site_fract_z
_atom_site_charge
Br1      Br     0.829350000000     0.412660000000     0.010590000000    -0.247916   
Br2      Br     0.345320000000     0.578790000000     0.996310000000    -0.251764   
Br3      Br     0.484450000000     0.812150000000     0.915690000000    -0.251836   
Br4      Br     0.405510000000     0.179920000000     0.964540000000    -0.231434   
Br5      Br     0.463680000000     0.093420000000     0.826280000000    -0.240049   
Br6      Br     0.623490000000     0.979520000000     0.329930000000    -0.260378   
Br7      Br     0.995650000000     0.599760000000     0.709570000000    -0.253565   
Br8      Br     0.127160000000     0.513850000000     0.181810000000    -0.254773   
Br9      Br     0.195610000000     0.071720000000     0.578760000000    -0.243029   
Br10     Br     0.702940000000     0.915900000000     0.553570000000    -0.245903   
Br11     Br     0.104840000000     0.863590000000     0.520540000000    -0.258546   
Br12     Br     0.021350000000     0.362040000000     0.598900000000    -0.260591   
C1       C      0.018340000000     0.949440000000     0.493650000000     0.440613   
C2       C      0.013750000000     0.123610000000     0.489320000000     0.433478   
C3       C      0.928600000000     0.035080000000     0.486840000000     0.432351   
C4       C      0.103330000000     0.038560000000     0.496530000000     0.440288   
C5       C      0.014230000000     0.529160000000     0.604640000000     0.440715   
C6       C      0.009620000000     0.540900000000     0.429050000000     0.428487   
C7       C      0.002720000000     0.621690000000     0.523270000000     0.433249   
C8       C      0.021550000000     0.449080000000     0.511780000000     0.439538   
C9       C      0.531830000000     0.000950000000     0.415710000000     0.43957    
C10      C      0.504330000000     0.988890000000     0.589150000000     0.433247   
C11      C      0.431490000000     0.996710000000     0.488400000000     0.431896   
C12      C      0.604400000000     0.991930000000     0.515470000000     0.439826   
C13      C      0.479280000000     0.084850000000     0.001150000000     0.437632   
C14      C      0.472710000000     0.910320000000     0.997060000000     0.437553   
C15      C      0.487450000000     0.994080000000     0.086230000000     0.431055   
C16      C      0.464430000000     0.001350000000     0.912090000000     0.443892   
C17      C      0.996800000000     0.470600000000     0.928600000000     0.433003   
C18      C      0.032200000000     0.485420000000     0.100480000000     0.436892   
C19      C      0.929070000000     0.484180000000     0.031410000000     0.435107   
C20      C      0.100560000000     0.471150000000     0.996890000000     0.432321   
C21      C      0.520430000000     0.412470000000     0.040270000000     0.429393   
C22      C      0.513540000000     0.587040000000     0.043850000000     0.433365   
C23      C      0.430210000000     0.496360000000     0.029140000000     0.439699   
C24      C      0.603380000000     0.504230000000     0.055580000000     0.430196   
C25      C      0.670750000000     0.493790000000     0.106300000000     0.0150174  
C26      C      0.856800000000     0.527110000000     0.021790000000     0.0205212  
C27      C      0.857580000000     0.448370000000     0.059720000000     0.135471   
C28      C      0.820280000000     0.542610000000     0.056110000000    -0.108571   
C29      C      0.716370000000     0.469200000000     0.096740000000    -0.102942   
C30      C      0.820900000000     0.464610000000     0.094390000000    -0.135317   
C31      C      0.746420000000     0.498250000000     0.065730000000     0.0234789  
C32      C      0.792520000000     0.502160000000     0.072650000000     0.0401773  
C33      C      0.677430000000     0.537060000000     0.031250000000     0.0146859  
C34      C      0.723840000000     0.514770000000     0.021590000000    -0.10223    
C35      C      0.171310000000     0.501640000000     0.960100000000     0.0152316  
C36      C      0.353620000000     0.479620000000     0.060640000000     0.0225345  
C37      C      0.362530000000     0.516160000000     0.981600000000     0.134793   
C38      C      0.315100000000     0.449070000000     0.042520000000    -0.110914   
C39      C      0.216880000000     0.514650000000     0.983190000000    -0.101931   
C40      C      0.320160000000     0.489590000000     0.964770000000    -0.1346     
C41      C      0.243060000000     0.473210000000     0.001120000000     0.0194274  
C42      C      0.289840000000     0.473620000000     0.004240000000     0.0428408  
C43      C      0.171860000000     0.425420000000     0.999700000000     0.0167969  
C44      C      0.214680000000     0.438260000000     0.027280000000    -0.103233   
C45      C      0.536970000000     0.660100000000     0.008220000000     0.017707   
C46      C      0.432160000000     0.838560000000     0.017200000000     0.0197281  
C47      C      0.507650000000     0.836740000000     0.973600000000     0.135225   
C48      C      0.448800000000     0.800040000000     0.049220000000    -0.108186   
C49      C      0.504630000000     0.695690000000     0.988000000000    -0.105107   
C50      C      0.524450000000     0.798000000000     0.004760000000    -0.134031   
C51      C      0.484360000000     0.724560000000     0.026340000000     0.023105   
C52      C      0.484620000000     0.771210000000     0.024940000000     0.0415941  
C53      C      0.492410000000     0.659720000000     0.082790000000     0.0160408  
C54      C      0.460450000000     0.697560000000     0.064180000000    -0.104953   
C55      C      0.504320000000     0.338530000000     0.078420000000     0.0136222  
C56      C      0.519190000000     0.155760000000     0.977890000000     0.0205932  
C57      C      0.441400000000     0.158770000000     0.017120000000     0.135541   
C58      C      0.535240000000     0.197050000000     0.005900000000    -0.108414   
C59      C      0.473200000000     0.299930000000     0.061000000000    -0.10075    
C60      C      0.457450000000     0.199500000000     0.046580000000    -0.136264   
C61      C      0.497900000000     0.272470000000     0.024250000000     0.0179532  
C62      C      0.495130000000     0.225900000000     0.022220000000     0.0442458  
C63      C      0.546130000000     0.340860000000     0.002360000000     0.0130184  
C64      C      0.517560000000     0.300520000000     0.984760000000    -0.100105   
C65      C      0.513270000000     0.024410000000     0.665770000000     0.0167412  
C66      C      0.417560000000     0.987210000000     0.842430000000     0.0232121  
C67      C      0.491050000000     0.033950000000     0.838710000000     0.136063   
C68      C      0.430840000000     0.962190000000     0.797640000000    -0.111257   
C69      C      0.474100000000     0.039120000000     0.697110000000    -0.104651   
C70      C      0.504110000000     0.010350000000     0.793650000000    -0.136418   
C71      C      0.456100000000     0.997830000000     0.722670000000     0.0215032  
C72      C      0.462130000000     0.992120000000     0.768880000000     0.0457969  
C73      C      0.477860000000     0.945760000000     0.658040000000     0.0128668  
C74      C      0.439130000000     0.959620000000     0.691690000000    -0.102806   
C75      C      0.531140000000     0.964290000000     0.152870000000     0.0141386  
C76      C      0.530940000000     0.048900000000     0.345800000000     0.0219769  
C77      C      0.558930000000     0.967130000000     0.342050000000     0.135211   
C78      C      0.500070000000     0.041480000000     0.303950000000    -0.10938    
C79      C      0.552930000000     0.988870000000     0.193990000000    -0.101547   
C80      C      0.533090000000     0.960400000000     0.296310000000    -0.133899   
C81      C      0.516670000000     0.008020000000     0.226210000000     0.0165815  
C82      C      0.520640000000     0.005280000000     0.272930000000     0.0411117  
C83      C      0.457760000000     0.008960000000     0.164390000000     0.0144317  
C84      C      0.479960000000     0.036720000000     0.203170000000    -0.101499   
C85      C      0.958420000000     0.502320000000     0.859820000000     0.0170038  
C86      C      0.055210000000     0.505130000000     0.675420000000     0.0240429  
C87      C      0.976860000000     0.543100000000     0.679830000000     0.13685    
C88      C      0.040070000000     0.469030000000     0.710970000000    -0.113197   
C89      C      0.984840000000     0.522350000000     0.819240000000    -0.102303   
C90      C      0.961860000000     0.508090000000     0.715960000000    -0.136565   
C91      C      0.003390000000     0.484600000000     0.788430000000     0.0188104  
C92      C      0.002780000000     0.488610000000     0.741570000000     0.0461957  
C93      C      0.002670000000     0.428740000000     0.854540000000     0.0135416  
C94      C      0.030090000000     0.447090000000     0.812960000000    -0.101427   
C95      C      0.043130000000     0.568270000000     0.355190000000     0.0135141  
C96      C      0.028710000000     0.451830000000     0.178650000000     0.020633   
C97      C      0.064120000000     0.529730000000     0.166230000000     0.134645   
C98      C      0.999940000000     0.469970000000     0.218830000000    -0.108261   
C99      C      0.060720000000     0.539190000000     0.314900000000    -0.100425   
C100     C      0.039150000000     0.547860000000     0.209210000000    -0.133708   
C101     C      0.021670000000     0.516710000000     0.288370000000     0.015472   
C102     C      0.024030000000     0.509920000000     0.241770000000     0.0409975  
C103     C      0.968820000000     0.524780000000     0.355950000000     0.0135962  
C104     C      0.986020000000     0.492700000000     0.317930000000    -0.100129   
C105     C      0.356510000000     0.957600000000     0.490900000000     0.0149918  
C106     C      0.177940000000     0.061180000000     0.463100000000     0.023474   
C107     C      0.173360000000     0.021320000000     0.540910000000     0.139132   
C108     C      0.218950000000     0.031510000000     0.449700000000    -0.110135   
C109     C      0.314430000000     0.972360000000     0.518890000000    -0.101849   
C110     C      0.213080000000     0.989620000000     0.527050000000    -0.139832   
C111     C      0.290020000000     0.010890000000     0.494070000000     0.0188456  
C112     C      0.243450000000     0.013190000000     0.491980000000     0.046745   
C113     C      0.363650000000     0.036470000000     0.456480000000     0.0147174  
C114     C      0.319740000000     0.051530000000     0.481050000000    -0.100661   
C115     C      0.857310000000     0.017660000000     0.443920000000     0.0142253  
C116     C      0.675740000000     0.028160000000     0.543920000000     0.0233267  
C117     C      0.677870000000     0.951660000000     0.502740000000     0.137745   
C118     C      0.714150000000     0.046020000000     0.513070000000    -0.110116   
C119     C      0.818870000000     0.984980000000     0.459240000000    -0.101947   
C120     C      0.716640000000     0.969000000000     0.471120000000    -0.139179   
C121     C      0.789750000000     0.007760000000     0.496020000000     0.0203088  
C122     C      0.743080000000     0.006830000000     0.494960000000     0.0456373  
C123     C      0.854390000000     0.058160000000     0.520740000000     0.0151185  
C124     C      0.815990000000     0.026670000000     0.536960000000    -0.101093   
C125     C      0.030800000000     0.695410000000     0.553940000000     0.0143259  
C126     C      0.008230000000     0.875650000000     0.453800000000     0.0220195  
C127     C      0.041490000000     0.879360000000     0.534840000000     0.136434   
C128     C      0.978640000000     0.834450000000     0.467420000000    -0.110605   
C129     C      0.046010000000     0.737050000000     0.526160000000    -0.101574   
C130     C      0.014530000000     0.836370000000     0.547860000000    -0.136305   
C131     C      0.004950000000     0.761830000000     0.505800000000     0.0182506  
C132     C      0.002100000000     0.808260000000     0.505750000000     0.0438143  
C133     C      0.956860000000     0.691340000000     0.508950000000     0.0138352  
C134     C      0.971560000000     0.732150000000     0.479100000000    -0.101221   
C135     C      0.991700000000     0.196400000000     0.526550000000     0.0173549  
C136     C      0.068930000000     0.382230000000     0.491720000000     0.0214663  
C137     C      0.995220000000     0.373550000000     0.538170000000     0.135897   
C138     C      0.057920000000     0.338420000000     0.464920000000    -0.109673   
C139     C      0.024130000000     0.234510000000     0.541460000000    -0.105531   
C140     C      0.985540000000     0.328380000000     0.513470000000    -0.134745   
C141     C      0.038920000000     0.261990000000     0.499770000000     0.021849   
C142     C      0.029130000000     0.307180000000     0.494690000000     0.041852   
C143     C      0.027980000000     0.195830000000     0.447250000000     0.0146595  
C144     C      0.061110000000     0.234140000000     0.461740000000    -0.103871   
H1       H      0.732940000000     0.462870000000     0.130690000000     0.046951   
H2       H      0.839420000000     0.517060000000     0.989160000000     0.0421538  
H3       H      0.683760000000     0.570790000000     0.047810000000     0.0284288  
H4       H      0.745200000000     0.538780000000     0.001280000000     0.0502466  
H5       H      0.799120000000     0.570470000000     0.041250000000     0.0481416  
H6       H      0.800250000000     0.434570000000     0.105200000000     0.067276   
H7       H      0.647900000000     0.470260000000     0.125860000000     0.0371307  
H8       H      0.879330000000     0.556670000000     0.013530000000     0.0384966  
H9       H      0.718170000000     0.484500000000     0.999110000000     0.0666373  
H10      H      0.838110000000     0.478320000000     0.125710000000     0.0574521  
H11      H      0.659730000000     0.543780000000     0.997930000000     0.039296   
H12      H      0.709700000000     0.435760000000     0.079790000000     0.0613254  
H13      H      0.837890000000     0.557840000000     0.086480000000     0.0546971  
H14      H      0.881240000000     0.424950000000     0.078440000000     0.0248692  
H15      H      0.677590000000     0.524190000000     0.128350000000     0.0314852  
H16      H      0.236790000000     0.535810000000     0.958690000000     0.0591812  
H17      H      0.338290000000     0.510030000000     0.077800000000     0.0482188  
H18      H      0.182650000000     0.407420000000     0.967640000000     0.0326093  
H19      H      0.234240000000     0.406130000000     0.033050000000     0.0491107  
H20      H      0.292540000000     0.441210000000     0.072380000000     0.0522207  
H21      H      0.301900000000     0.509790000000     0.938200000000     0.0699365  
H22      H      0.150620000000     0.533070000000     0.954350000000     0.0422349  
H23      H      0.372840000000     0.460070000000     0.087320000000     0.0380672  
H24      H      0.204520000000     0.452610000000     0.061320000000     0.064185   
H25      H      0.332480000000     0.458460000000     0.946570000000     0.0628295  
H26      H      0.151090000000     0.401200000000     0.020640000000     0.0424132  
H27      H      0.209160000000     0.536960000000     0.013260000000     0.067829   
H28      H      0.329570000000     0.416480000000     0.029170000000     0.0560643  
H29      H      0.387300000000     0.518390000000     0.952480000000     0.0290784  
H30      H      0.179240000000     0.486980000000     0.925590000000     0.0307841  
H31      H      0.522390000000     0.715270000000     0.960650000000     0.0628886  
H32      H      0.411250000000     0.823240000000     0.989060000000     0.0499689  
H33      H      0.520210000000     0.676070000000     0.103290000000     0.0308316  
H34      H      0.450790000000     0.719410000000     0.093970000000     0.0486879  
H35      H      0.418100000000     0.779710000000     0.059010000000     0.0518511  
H36      H      0.550260000000     0.777090000000     0.986310000000     0.0665827  
H37      H      0.550400000000     0.638180000000     0.979930000000     0.0407655  
H38      H      0.409200000000     0.861430000000     0.037380000000     0.0400096  
H39      H      0.428700000000     0.681900000000     0.049940000000     0.0667036  
H40      H      0.543450000000     0.813560000000     0.034110000000     0.0607132  
H41      H      0.472390000000     0.637270000000     0.106340000000     0.0416412  
H42      H      0.475980000000     0.677640000000     0.970350000000     0.0714185  
H43      H      0.463930000000     0.814940000000     0.081070000000     0.0532608  
H44      H      0.537820000000     0.858120000000     0.964350000000     0.028801   
H45      H      0.566850000000     0.678150000000     0.023730000000     0.0281887  
H46      H      0.464150000000     0.278690000000     0.091460000000     0.0458631  
H47      H      0.507330000000     0.168120000000     0.943620000000     0.0532854  
H48      H      0.578840000000     0.327120000000     0.016510000000     0.0312355  
H49      H      0.538400000000     0.280480000000     0.960050000000     0.0516012  
H50      H      0.561000000000     0.216150000000     0.985500000000     0.0510645  
H51      H      0.426930000000     0.221190000000     0.053670000000     0.0687063  
H52      H      0.484430000000     0.359610000000     0.103330000000     0.0385531  
H53      H      0.549100000000     0.133030000000     0.971480000000     0.0422986  
H54      H      0.488220000000     0.314330000000     0.964570000000     0.0631691  
H55      H      0.470790000000     0.186800000000     0.080160000000     0.0583442  
H56      H      0.555090000000     0.363380000000     0.972800000000     0.0416666  
H57      H      0.441110000000     0.314500000000     0.046320000000     0.057379   
H58      H      0.553630000000     0.184370000000     0.036980000000     0.0560388  
H59      H      0.417950000000     0.137800000000     0.038810000000     0.0260389  
H60      H      0.533810000000     0.323200000000     0.097310000000     0.0313466  
H61      H      0.484800000000     0.067490000000     0.720100000000     0.0648188  
H62      H      0.393900000000     0.015780000000     0.833750000000     0.0522992  
H63      H      0.505100000000     0.927800000000     0.677930000000     0.0370786  
H64      H      0.428410000000     0.928750000000     0.711180000000     0.0500947  
H65      H      0.398550000000     0.953840000000     0.779030000000     0.0546463  
H66      H      0.525850000000     0.033430000000     0.772630000000     0.0684869  
H67      H      0.525780000000     0.054550000000     0.646070000000     0.0413363  
H68      H      0.398600000000     0.963000000000     0.865110000000     0.0429444  
H69      H      0.409020000000     0.971940000000     0.671670000000     0.0569944  
H70      H      0.526340000000     0.980610000000     0.802100000000     0.0666629  
H71      H      0.463740000000     0.921330000000     0.632290000000     0.0407188  
H72      H      0.445960000000     0.053120000000     0.675350000000     0.0647551  
H73      H      0.448850000000     0.929740000000     0.806090000000     0.0634943  
H74      H      0.523200000000     0.041040000000     0.858120000000     0.0289728  
H75      H      0.542260000000     0.012330000000     0.687600000000     0.031708   
H76      H      0.577750000000     0.965710000000     0.211060000000     0.056094   
H77      H      0.564190000000     0.063560000000     0.334070000000     0.0460064  
H78      H      0.438700000000     0.979700000000     0.179740000000     0.0316638  
H79      H      0.452070000000     0.046630000000     0.227330000000     0.0449224  
H80      H      0.497180000000     0.074930000000     0.285960000000     0.04813    
H81      H      0.552750000000     0.936660000000     0.274040000000     0.0684206  
H82      H      0.558230000000     0.956280000000     0.127070000000     0.0390023  
H83      H      0.514230000000     0.074580000000     0.368570000000     0.0377816  
H84      H      0.495650000000     0.068350000000     0.188900000000     0.0533319  
H85      H      0.500310000000     0.942520000000     0.304110000000     0.0606811  
H86      H      0.432530000000     0.031220000000     0.146320000000     0.0381699  
H87      H      0.573430000000     0.018080000000     0.180660000000     0.0596813  
H88      H      0.465290000000     0.030570000000     0.315350000000     0.0533324  
H89      H      0.558030000000     0.934270000000     0.361320000000     0.0279888  
H90      H      0.517060000000     0.931160000000     0.165300000000     0.0286406  
H91      H      0.962810000000     0.547560000000     0.801360000000     0.0627726  
H92      H      0.074190000000     0.532690000000     0.693700000000     0.047649   
H93      H      0.972620000000     0.409200000000     0.841390000000     0.0370999  
H94      H      0.036960000000     0.417700000000     0.789660000000     0.0506399  
H95      H      0.070980000000     0.458890000000     0.730940000000     0.0546561  
H96      H      0.934840000000     0.522730000000     0.738420000000     0.0683877  
H97      H      0.947950000000     0.530240000000     0.883660000000     0.040401   
H98      H      0.079440000000     0.488750000000     0.650790000000     0.0446674  
H99      H      0.063500000000     0.461080000000     0.824990000000     0.0557827  
H100     H      0.944920000000     0.479270000000     0.697630000000     0.0674188  
H101     H      0.024790000000     0.404930000000     0.874590000000     0.0403057  
H102     H      0.014570000000     0.541970000000     0.832890000000     0.0668968  
H103     H      0.026680000000     0.438320000000     0.692820000000     0.0706952  
H104     H      0.946410000000     0.551920000000     0.658480000000     0.0294792  
H105     H      0.926520000000     0.486280000000     0.846280000000     0.0333066  
H106     H      0.083580000000     0.560530000000     0.293350000000     0.0559593  
H107     H      0.060710000000     0.436390000000     0.192640000000     0.0466119  
H108     H      0.949570000000     0.553420000000     0.339670000000     0.0303098  
H109     H      0.955460000000     0.482390000000     0.297480000000     0.0442957  
H110     H      0.995030000000     0.440980000000     0.243130000000     0.0479942  
H111     H      0.060490000000     0.574560000000     0.225650000000     0.0683644  
H112     H      0.072700000000     0.579110000000     0.376830000000     0.0406354  
H113     H      0.008990000000     0.424080000000     0.161470000000     0.0391013  
H114     H      0.001440000000     0.461590000000     0.333610000000     0.0530543  
H115     H      0.007550000000     0.565720000000     0.197470000000     0.0602617  
H116     H      0.944510000000     0.505520000000     0.378240000000     0.0386045  
H117     H      0.082640000000     0.511480000000     0.329190000000     0.060954   
H118     H      0.965740000000     0.481150000000     0.206070000000     0.0526394  
H119     H      0.066430000000     0.558060000000     0.140770000000     0.0287994  
H120     H      0.027350000000     0.599760000000     0.340640000000     0.0295929  
H121     H      0.292040000000     0.941820000000     0.522810000000     0.0505955  
H122     H      0.191210000000     0.094290000000     0.476410000000     0.0426401  
H123     H      0.354300000000     0.025430000000     0.420970000000     0.027676   
H124     H      0.301850000000     0.077240000000     0.459490000000     0.0493316  
H125     H      0.241500000000     0.050930000000     0.425950000000     0.0488811  
H126     H      0.232120000000     0.980240000000     0.558920000000     0.0738291  
H127     H      0.375410000000     0.931110000000     0.510850000000     0.0393349  
H128     H      0.157520000000     0.069040000000     0.431670000000     0.0370362  
H129     H      0.329500000000     0.069390000000     0.513460000000     0.0638148  
H130     H      0.199090000000     0.957710000000     0.511640000000     0.0729834  
H131     H      0.387170000000     0.066230000000     0.453110000000     0.0377275  
H132     H      0.325200000000     0.984060000000     0.553750000000     0.0592546  
H133     H      0.206100000000     0.001750000000     0.429630000000     0.0594912  
H134     H      0.149450000000     0.001110000000     0.562850000000     0.0326681  
H135     H      0.344760000000     0.941900000000     0.457970000000     0.0328758  
H136     H      0.798560000000     0.976200000000     0.428020000000     0.0502757  
H137     H      0.691370000000     0.015180000000     0.576380000000     0.0446786  
H138     H      0.838540000000     0.089610000000     0.506160000000     0.0289286  
H139     H      0.794350000000     0.044680000000     0.562600000000     0.0505993  
H140     H      0.733910000000     0.072660000000     0.531580000000     0.0496485  
H141     H      0.738750000000     0.939360000000     0.462130000000     0.0727916  
H142     H      0.880650000000     0.999040000000     0.420040000000     0.0383314  
H143     H      0.652760000000     0.056960000000     0.553590000000     0.0385392  
H144     H      0.831610000000     0.997360000000     0.555680000000     0.064      
H145     H      0.701650000000     0.982590000000     0.438610000000     0.0725385  
H146     H      0.875440000000     0.068730000000     0.550920000000     0.0393378  
H147     H      0.834030000000     0.953060000000     0.473420000000     0.0583397  
H148     H      0.698350000000     0.063520000000     0.482940000000     0.0606717  
H149     H      0.656280000000     0.927950000000     0.482030000000     0.0318754  
H150     H      0.841700000000     0.046630000000     0.424620000000     0.03321    
H151     H      0.068380000000     0.758820000000     0.547870000000     0.062291   
H152     H      0.040070000000     0.863140000000     0.436790000000     0.0462493  
H153     H      0.935680000000     0.704150000000     0.538180000000     0.0362213  
H154     H      0.939870000000     0.751070000000     0.469560000000     0.0469704  
H155     H      0.973970000000     0.813280000000     0.435940000000     0.0494577  
H156     H      0.033120000000     0.817110000000     0.574960000000     0.0706256  
H157     H      0.061530000000     0.675420000000     0.564500000000     0.0457471  
H158     H      0.988880000000     0.896270000000     0.428050000000     0.0367984  
H159     H      0.988320000000     0.719750000000     0.446980000000     0.0542841  
H160     H      0.981820000000     0.847330000000     0.564270000000     0.0647723  
H161     H      0.935090000000     0.668260000000     0.487690000000     0.0395392  
H162     H      0.067830000000     0.725120000000     0.497080000000     0.0632995  
H163     H      0.944360000000     0.846240000000     0.479380000000     0.0555592  
H164     H      0.042960000000     0.901860000000     0.565730000000     0.0294679  
H165     H      0.013840000000     0.707730000000     0.586010000000     0.0383892  
H166     H      0.008490000000     0.255320000000     0.569290000000     0.0638842  
H167     H      0.093070000000     0.373850000000     0.520230000000     0.0474249  
H168     H      0.997790000000     0.211470000000     0.429780000000     0.0308666  
H169     H      0.069170000000     0.254510000000     0.430460000000     0.0462577  
H170     H      0.091270000000     0.322670000000     0.455270000000     0.0498459  
H171     H      0.965250000000     0.305520000000     0.536140000000     0.067049   
H172     H      0.983380000000     0.174660000000     0.556890000000     0.0411848  
H173     H      0.086820000000     0.406250000000     0.467980000000     0.0375503  
H174     H      0.093620000000     0.218970000000     0.474750000000     0.0581897  
H175     H      0.962850000000     0.335700000000     0.483520000000     0.0599493  
H176     H      0.045730000000     0.173480000000     0.421830000000     0.0383706  
H177     H      0.055240000000     0.218690000000     0.556920000000     0.0672288  
H178     H      0.038800000000     0.346910000000     0.432840000000     0.0529229  
H179     H      0.961740000000     0.390750000000     0.544330000000     0.0270898  
H180     H      0.959060000000     0.212190000000     0.514560000000     0.028315   
N1       N      0.882930000000     0.487430000000     0.039510000000    -0.184921   
N2       N      0.649450000000     0.508990000000     0.062840000000    -0.178412   
N3       N      0.383720000000     0.494900000000     0.022690000000    -0.18527    
N4       N      0.146340000000     0.467010000000     0.987220000000    -0.177383   
N5       N      0.471290000000     0.863550000000     0.996700000000    -0.184586   
N6       N      0.513330000000     0.633760000000     0.044560000000    -0.177752   
N7       N      0.480900000000     0.131600000000     0.000780000000    -0.183372   
N8       N      0.521980000000     0.365720000000     0.039410000000    -0.177708   
N9       N      0.458600000000     0.005780000000     0.865630000000    -0.183952   
N10      N      0.498110000000     0.986510000000     0.635780000000    -0.17788    
N11      N      0.539250000000     0.005000000000     0.369330000000    -0.18587    
N12      N      0.493220000000     0.991250000000     0.132860000000    -0.179183   
N13      N      0.015110000000     0.525170000000     0.651620000000    -0.183713   
N14      N      0.986180000000     0.467060000000     0.882920000000    -0.177466   
N15      N      0.040620000000     0.489320000000     0.146800000000    -0.184679   
N16      N      0.007970000000     0.543530000000     0.381940000000    -0.178218   
N17      N      0.150060000000     0.039270000000     0.499450000000    -0.18513    
N18      N      0.385340000000     0.997630000000     0.480470000000    -0.179068   
N19      N      0.650930000000     0.990520000000     0.520920000000    -0.184718   
N20      N      0.881840000000     0.035770000000     0.484450000000    -0.179084   
N21      N      0.020690000000     0.902860000000     0.494810000000    -0.186021   
N22      N      0.997610000000     0.667850000000     0.527490000000    -0.17705    
N23      N      0.026940000000     0.402740000000     0.511370000000    -0.186232   
N24      N      0.012020000000     0.170200000000     0.488110000000    -0.179142   
Ni1      Ni     0.013740000000     0.037460000000     0.532580000000     1.01908    
Ni2      Ni     0.018210000000     0.035610000000     0.450470000000     1.00144    
Ni3      Ni     0.052550000000     0.539690000000     0.516120000000     0.997088   
Ni4      Ni     0.971650000000     0.531100000000     0.517720000000     1.00795    
Ni5      Ni     0.517180000000     0.953880000000     0.499450000000     1.00508    
Ni6      Ni     0.518570000000     0.035120000000     0.505280000000     1.01269    
Ni7      Ni     0.435510000000     0.998880000000     0.004860000000     1.00633    
Ni8      Ni     0.516340000000     0.996250000000     0.993440000000     1.00765    
Ni9      Ni     0.012680000000     0.437500000000     0.018680000000     1.00883    
Ni10     Ni     0.017060000000     0.518260000000     0.010080000000     0.998183   
Ni11     Ni     0.510480000000     0.498360000000     0.082740000000     1.00187    
Ni12     Ni     0.523230000000     0.501230000000     0.001600000000     1.00317    
O1       O      0.015800000000     0.972050000000     0.531460000000    -0.450386   
O2       O      0.012110000000     0.102730000000     0.528190000000    -0.449918   
O3       O      0.948390000000     0.036960000000     0.526280000000    -0.453197   
O4       O      0.079340000000     0.037950000000     0.533590000000    -0.442988   
O5       O      0.083730000000     0.038240000000     0.456890000000    -0.449205   
O6       O      0.952410000000     0.033300000000     0.449660000000    -0.45043    
O7       O      0.016750000000     0.101000000000     0.451550000000    -0.451934   
O8       O      0.019330000000     0.970300000000     0.454750000000    -0.449979   
O9       O      0.051910000000     0.529730000000     0.581690000000    -0.441871   
O10      O      0.047370000000     0.548650000000     0.450530000000    -0.44595    
O11      O      0.042810000000     0.603770000000     0.526050000000    -0.446433   
O12      O      0.056620000000     0.475060000000     0.506670000000    -0.448048   
O13      O      0.981690000000     0.466410000000     0.518650000000    -0.450008   
O14      O      0.967340000000     0.596410000000     0.516930000000    -0.449124   
O15      O      0.973240000000     0.530580000000     0.451690000000    -0.451803   
O16      O      0.975610000000     0.532180000000     0.583650000000    -0.447516   
O17      O      0.527870000000     0.961310000000     0.434340000000    -0.446566   
O18      O      0.506640000000     0.952190000000     0.564990000000    -0.444457   
O19      O      0.452350000000     0.958200000000     0.490320000000    -0.452715   
O20      O      0.582150000000     0.954720000000     0.508840000000    -0.443411   
O21      O      0.583350000000     0.030440000000     0.516140000000    -0.450927   
O22      O      0.453690000000     0.034220000000     0.493660000000    -0.450571   
O23      O      0.508480000000     0.028090000000     0.569910000000    -0.454359   
O24      O      0.528740000000     0.037120000000     0.440380000000    -0.45551    
O25      O      0.440440000000     0.064340000000     0.004290000000    -0.437995   
O26      O      0.436190000000     0.933280000000     0.005680000000    -0.447793   
O27      O      0.447040000000     0.999590000000     0.069700000000    -0.452743   
O28      O      0.429390000000     0.997960000000     0.938730000000    -0.440292   
O29      O      0.505070000000     0.002040000000     0.928910000000    -0.450271   
O30      O      0.522200000000     0.990730000000     0.059250000000    -0.450931   
O31      O      0.510660000000     0.931090000000     0.988990000000    -0.449151   
O32      O      0.516500000000     0.061670000000     0.997600000000    -0.448813   
O33      O      0.002420000000     0.434440000000     0.953060000000    -0.443753   
O34      O      0.023300000000     0.446070000000     0.083210000000    -0.450005   
O35      O      0.948190000000     0.444720000000     0.029640000000    -0.441095   
O36      O      0.077430000000     0.435580000000     0.008130000000    -0.450252   
O37      O      0.080820000000     0.510330000000     0.994560000000    -0.443925   
O38      O      0.952910000000     0.520510000000     0.024950000000    -0.449512   
O39      O      0.032850000000     0.521000000000     0.074530000000    -0.44581    
O40      O      0.000580000000     0.510280000000     0.946830000000    -0.450148   
O41      O      0.513070000000     0.433170000000     0.078550000000    -0.450837   
O42      O      0.507690000000     0.564250000000     0.081300000000    -0.445093   
O43      O      0.446290000000     0.495430000000     0.070250000000    -0.450967   
O44      O      0.576030000000     0.500520000000     0.090100000000    -0.449727   
O45      O      0.587610000000     0.504840000000     0.014300000000    -0.449193   
O46      O      0.457470000000     0.499000000000     0.994390000000    -0.443741   
O47      O      0.520460000000     0.566230000000     0.005620000000    -0.448936   
O48      O      0.526290000000     0.435460000000     0.002980000000    -0.446943   


