data_structure

_audit_creation_method RASPA-1.0
_audit_creation_date 2023-5-25
_audit_author_name 'Poobodin Mano'

_cell_length_a    28.8811
_cell_length_b    28.4096
_cell_length_c    29.2163
_cell_angle_alpha 89.997
_cell_angle_beta  89.997
_cell_angle_gamma 89.997
_cell_volume      23972

_symmetry_cell_setting          triclinic
_symmetry_space_group_name_Hall 'P 1'
_symmetry_space_group_name_H-M  'P 1'
_symmetry_Int_Tables_number     1

_symmetry_equiv_pos_as_xyz 'x,y,z'

loop_
_atom_site_label
_atom_site_type_symbol
_atom_site_fract_x
_atom_site_fract_y
_atom_site_fract_z
_atom_site_charge
C1       C      0.019840000000     0.925650000000     0.496370000000     0.431017   
C2       C      0.072160000000     0.095190000000     0.522710000000     0.430133   
C3       C      0.961870000000     0.038760000000     0.502420000000     0.428957   
C4       C      0.129710000000     0.983530000000     0.514970000000     0.429916   
C5       C      0.018690000000     0.522370000000     0.581600000000     0.431681   
C6       C      0.019590000000     0.499160000000     0.408380000000     0.430108   
C7       C      0.998990000000     0.598130000000     0.482170000000     0.429759   
C8       C      0.038550000000     0.424850000000     0.506200000000     0.432174   
C9       C      0.533640000000     0.033230000000     0.452870000000     0.429921   
C10      C      0.553550000000     0.043100000000     0.626280000000     0.431298   
C11      C      0.456290000000     0.031530000000     0.550700000000     0.43091    
C12      C      0.631240000000     0.043940000000     0.529130000000     0.430541   
C13      C      0.515410000000     0.099540000000     0.040600000000     0.430468   
C14      C      0.480310000000     0.923760000000     0.034170000000     0.430638   
C15      C      0.494060000000     0.008330000000     0.124870000000     0.428659   
C16      C      0.501830000000     0.013320000000     0.950380000000     0.429552   
C17      C      0.984860000000     0.547530000000     0.907850000000     0.429532   
C18      C      0.983850000000     0.536410000000     0.082140000000     0.432302   
C19      C      0.898010000000     0.557490000000     0.997760000000     0.433525   
C20      C      0.071470000000     0.525160000000     0.994800000000     0.43229    
C21      C      0.488080000000     0.422320000000     0.970310000000     0.431114   
C22      C      0.493680000000     0.601520000000     0.966070000000     0.43168    
C23      C      0.402390000000     0.514950000000     0.968140000000     0.42915    
C24      C      0.578720000000     0.510520000000     0.967020000000     0.42995    
C25      C      0.651800000000     0.532950000000     0.928160000000     0.011667   
C26      C      0.824070000000     0.532900000000     0.031650000000     0.0228837  
C27      C      0.828730000000     0.606860000000     0.983590000000     0.112113   
C28      C      0.782550000000     0.515470000000     0.004660000000    -0.108277   
C29      C      0.681110000000     0.574910000000     0.944850000000    -0.0998031  
C30      C      0.785530000000     0.590910000000     0.956270000000    -0.13122    
C31      C      0.709500000000     0.559380000000     0.985800000000     0.0132659  
C32      C      0.756510000000     0.556740000000     0.984200000000     0.0345411  
C33      C      0.653110000000     0.497230000000     0.007110000000     0.0141584  
C34      C      0.681380000000     0.538770000000     0.024730000000    -0.0994431  
C35      C      0.327980000000     0.500790000000     0.928630000000     0.0129864  
C36      C      0.149640000000     0.548010000000     0.020860000000     0.0207598  
C37      C      0.136620000000     0.470970000000     0.978880000000     0.112025   
C38      C      0.193260000000     0.557120000000     0.992850000000    -0.108256   
C39      C      0.285630000000     0.472470000000     0.944590000000    -0.100744   
C40      C      0.180270000000     0.480050000000     0.949720000000    -0.131901   
C41      C      0.259440000000     0.500660000000     0.980130000000     0.0146054  
C42      C      0.213670000000     0.511250000000     0.975760000000     0.0341748  
C43      C      0.330530000000     0.543660000000     0.004550000000     0.0133778  
C44      C      0.288240000000     0.516160000000     0.020710000000    -0.0998625  
C45      C      0.429240000000     0.858290000000     0.009290000000     0.0120161  
C46      C      0.521160000000     0.674240000000     0.003100000000     0.0219376  
C47      C      0.475350000000     0.678160000000     0.929210000000     0.110066   
C48      C      0.488320000000     0.708950000000     0.025590000000    -0.10791    
C49      C      0.442450000000     0.823670000000     0.970690000000    -0.100638   
C50      C      0.443520000000     0.716290000000     0.950670000000    -0.130168   
C51      C      0.477410000000     0.788290000000     0.988600000000     0.0158051  
C52      C      0.468670000000     0.741240000000     0.989330000000     0.0326646  
C53      C      0.504700000000     0.841960000000     0.049610000000     0.0148734  
C54      C      0.519830000000     0.809710000000     0.010860000000    -0.0999686  
C55      C      0.565820000000     0.167170000000     0.020560000000     0.0120967  
C56      C      0.464100000000     0.350500000000     0.011430000000     0.0216579  
C57      C      0.508400000000     0.344500000000     0.936860000000     0.109852   
C58      C      0.498880000000     0.318470000000     0.034940000000    -0.107945   
C59      C      0.551740000000     0.204010000000     0.984210000000    -0.100164   
C60      C      0.542450000000     0.309120000000     0.959470000000    -0.130004   
C61      C      0.515810000000     0.237520000000     0.003780000000     0.0151558  
C62      C      0.519490000000     0.285170000000     0.000030000000     0.0326461  
C63      C      0.490690000000     0.179570000000     0.062430000000     0.0153651  
C64      C      0.474350000000     0.214160000000     0.026140000000    -0.0997678  
C65      C      0.467790000000     0.035590000000     0.875640000000     0.0128042  
C66      C      0.578040000000     0.007290000000     0.699870000000     0.0200287  
C67      C      0.543310000000     0.088850000000     0.697830000000     0.111151   
C68      C      0.545320000000     0.993100000000     0.738560000000    -0.106978   
C69      C      0.490020000000     0.065030000000     0.837340000000    -0.0999645  
C70      C      0.509150000000     0.075400000000     0.736230000000    -0.131026   
C71      C      0.525750000000     0.035920000000     0.811790000000     0.0138124  
C72      C      0.528960000000     0.035930000000     0.765210000000     0.0331443  
C73      C      0.538540000000     0.983810000000     0.879530000000     0.0140609  
C74      C      0.561790000000     0.012500000000     0.841910000000    -0.100098   
C75      C      0.525210000000     0.975410000000     0.196800000000     0.0132379  
C76      C      0.513040000000     0.072450000000     0.380270000000     0.0199123  
C77      C      0.548270000000     0.990490000000     0.380530000000     0.110703   
C78      C      0.479110000000     0.058030000000     0.342350000000    -0.108774   
C79      C      0.541530000000     0.999940000000     0.240450000000    -0.0986444  
C80      C      0.515630000000     0.976460000000     0.341350000000    -0.130634   
C81      C      0.501120000000     0.020020000000     0.267330000000     0.013777   
C82      C      0.500300000000     0.019030000000     0.314000000000     0.0335885  
C83      C      0.451690000000     0.023220000000     0.196980000000     0.0134817  
C84      C      0.467740000000     0.049960000000     0.239810000000    -0.100456   
C85      C      0.004190000000     0.592770000000     0.837960000000     0.0125266  
C86      C      0.983680000000     0.499840000000     0.655460000000     0.0204091  
C87      C      0.058720000000     0.546380000000     0.652980000000     0.111366   
C88      C      0.966190000000     0.530470000000     0.694550000000    -0.108337   
C89      C      0.035870000000     0.578410000000     0.798090000000    -0.100392   
C90      C      0.041500000000     0.576860000000     0.693400000000    -0.131393   
C91      C      0.010850000000     0.543460000000     0.767780000000     0.014681   
C92      C      0.006630000000     0.549530000000     0.721680000000     0.0336471  
C93      C      0.961240000000     0.515540000000     0.832470000000     0.0129192  
C94      C      0.992180000000     0.500620000000     0.792670000000    -0.0995699  
C95      C      0.983600000000     0.466580000000     0.337890000000     0.0128915  
C96      C      0.998050000000     0.573890000000     0.156990000000     0.0209181  
C97      C      0.957560000000     0.495040000000     0.152140000000     0.111087   
C98      C      0.028950000000     0.556110000000     0.195820000000    -0.108738   
C99      C      0.966470000000     0.494690000000     0.296490000000    -0.0986322  
C100     C      0.986420000000     0.477150000000     0.192700000000    -0.130677   
C101     C      0.006450000000     0.514320000000     0.268430000000     0.012878   
C102     C      0.004380000000     0.517380000000     0.221930000000     0.0337353  
C103     C      0.060430000000     0.507780000000     0.334530000000     0.0139036  
C104     C      0.043830000000     0.539380000000     0.295510000000    -0.100047   
C105     C      0.206630000000     0.978030000000     0.478320000000     0.0145782  
C106     C      0.389240000000     0.990270000000     0.585190000000     0.0208596  
C107     C      0.378350000000     0.065810000000     0.541010000000     0.113174   
C108     C      0.346850000000     0.968380000000     0.561850000000    -0.107026   
C109     C      0.243860000000     0.013300000000     0.492110000000    -0.0990808  
C110     C      0.339100000000     0.043370000000     0.513100000000    -0.131683   
C111     C      0.269150000000     0.995610000000     0.534250000000     0.0118629  
C112     C      0.315090000000     0.004940000000     0.540370000000     0.0340421  
C113     C      0.196490000000     0.950360000000     0.558760000000     0.0124344  
C114     C      0.238770000000     0.979420000000     0.574080000000    -0.0982871  
C115     C      0.892590000000     0.050970000000     0.454440000000     0.0141103  
C116     C      0.704630000000     0.084780000000     0.546240000000     0.0197641  
C117     C      0.703710000000     0.006840000000     0.503230000000     0.113275   
C118     C      0.745650000000     0.101190000000     0.517070000000    -0.108144   
C119     C      0.844930000000     0.028860000000     0.462000000000    -0.0998315  
C120     C      0.741500000000     0.025370000000     0.470790000000    -0.133392   
C121     C      0.818610000000     0.055730000000     0.498470000000     0.013615   
C122     C      0.771620000000     0.059960000000     0.496510000000     0.035047   
C123     C      0.894520000000     0.080860000000     0.535370000000     0.0127809  
C124     C      0.844520000000     0.064380000000     0.543030000000    -0.098659   
C125     C      0.942580000000     0.663530000000     0.483800000000     0.0140464  
C126     C      0.025520000000     0.853420000000     0.449810000000     0.0190712  
C127     C      0.983340000000     0.853240000000     0.526650000000     0.11153    
C128     C      0.989400000000     0.819320000000     0.430930000000    -0.107574   
C129     C      0.947520000000     0.712760000000     0.504880000000    -0.100838   
C130     C      0.946560000000     0.819860000000     0.506180000000    -0.131233   
C131     C      0.978130000000     0.743600000000     0.475210000000     0.0173759  
C132     C      0.969090000000     0.790340000000     0.469320000000     0.0323276  
C133     C      0.019070000000     0.672400000000     0.443340000000     0.0137656  
C134     C      0.024460000000     0.722370000000     0.461840000000    -0.100039   
C135     C      0.112470000000     0.167540000000     0.496100000000     0.0130475  
C136     C      0.014710000000     0.346620000000     0.533330000000     0.0206873  
C137     C      0.089720000000     0.357560000000     0.488720000000     0.110428   
C138     C      0.038840000000     0.312440000000     0.566060000000    -0.109377   
C139     C      0.091860000000     0.217000000000     0.490310000000    -0.0982144  
C140     C      0.112690000000     0.320300000000     0.519360000000    -0.130564   
C141     C      0.078530000000     0.239830000000     0.535680000000     0.0136946  
C142     C      0.077050000000     0.287570000000     0.540170000000     0.0334454  
C143     C      0.080960000000     0.162270000000     0.575760000000     0.0147174  
C144     C      0.054510000000     0.208390000000     0.570230000000    -0.100185   
H1       H      0.702620000000     0.587320000000     0.915770000000     0.0418965  
H2       H      0.811210000000     0.552020000000     0.062350000000     0.0270297  
H3       H      0.677380000000     0.468770000000     0.996720000000     0.0246795  
H4       H      0.702410000000     0.528670000000     0.054930000000     0.0430442  
H5       H      0.761360000000     0.492230000000     0.026710000000     0.0446655  
H6       H      0.765470000000     0.622770000000     0.946510000000     0.0513311  
H7       H      0.628640000000     0.545200000000     0.900200000000     0.0356773  
H8       H      0.844400000000     0.502230000000     0.044170000000     0.0304759  
H9       H      0.657030000000     0.566270000000     0.037150000000     0.0533631  
H10      H      0.796760000000     0.573090000000     0.924270000000     0.0548509  
H11      H      0.631140000000     0.483190000000     0.035210000000     0.0348084  
H12      H      0.657860000000     0.604220000000     0.955210000000     0.0500953  
H13      H      0.795120000000     0.493020000000     0.976080000000     0.054805   
H14      H      0.852310000000     0.625760000000     0.959600000000     0.0104685  
H15      H      0.675470000000     0.505880000000     0.913670000000     0.0275233  
H16      H      0.801350000000     0.669960000000     0.005990000000     0.0768303  
H17      H      0.844160000000     0.647990000000     0.039810000000     0.0884951  
H18      H      0.264550000000     0.464640000000     0.913760000000     0.0419231  
H19      H      0.160000000000     0.531290000000     0.053720000000     0.0282113  
H20      H      0.318560000000     0.577970000000     0.990540000000     0.0251977  
H21      H      0.268790000000     0.536690000000     0.046590000000     0.0431489  
H22      H      0.217640000000     0.579070000000     0.012860000000     0.0444864  
H23      H      0.195570000000     0.445380000000     0.940780000000     0.0511103  
H24      H      0.348910000000     0.478180000000     0.905440000000     0.0347522  
H25      H      0.133250000000     0.582290000000     0.029450000000     0.0335394  
H26      H      0.300440000000     0.484030000000     0.038800000000     0.0524887  
H27      H      0.170310000000     0.497890000000     0.917320000000     0.0548448  
H28      H      0.353000000000     0.551410000000     0.034490000000     0.0353606  
H29      H      0.297070000000     0.438560000000     0.959850000000     0.0498752  
H30      H      0.183640000000     0.578600000000     0.962500000000     0.0526058  
H31      H      0.110970000000     0.452770000000     0.956540000000     0.0125898  
H32      H      0.315790000000     0.531670000000     0.908530000000     0.028103   
H33      H      0.158240000000     0.407100000000     0.005170000000     0.0767046  
H34      H      0.118530000000     0.435640000000     0.038030000000     0.0882918  
H35      H      0.410130000000     0.806760000000     0.958340000000     0.0421618  
H36      H      0.550990000000     0.694070000000     0.988630000000     0.0275127  
H37      H      0.487600000000     0.820250000000     0.076430000000     0.0250299  
H38      H      0.545490000000     0.783570000000     0.023110000000     0.0436209  
H39      H      0.505520000000     0.727500000000     0.054320000000     0.0445907  
H40      H      0.432100000000     0.740730000000     0.923240000000     0.0508147  
H41      H      0.407490000000     0.886840000000     0.994630000000     0.0353221  
H42      H      0.535280000000     0.649980000000     0.029500000000     0.0330207  
H43      H      0.538250000000     0.831170000000     0.984750000000     0.0544948  
H44      H      0.412040000000     0.699110000000     0.964810000000     0.0542481  
H45      H      0.535660000000     0.858560000000     0.065440000000     0.0347444  
H46      H      0.458070000000     0.843450000000     0.941730000000     0.0500866  
H47      H      0.459240000000     0.688980000000     0.041270000000     0.0544532  
H48      H      0.453610000000     0.655980000000     0.906240000000     0.0124559  
H49      H      0.408070000000     0.839040000000     0.035020000000     0.0280638  
H50      H      0.496660000000     0.718470000000     0.874260000000     0.0763543  
H51      H      0.534050000000     0.674760000000     0.889050000000     0.0866054  
H52      H      0.583690000000     0.222740000000     0.973440000000     0.0421039  
H53      H      0.434890000000     0.328590000000     0.998690000000     0.0282847  
H54      H      0.507940000000     0.199750000000     0.090260000000     0.0251678  
H55      H      0.448790000000     0.238860000000     0.041020000000     0.043513   
H56      H      0.483030000000     0.300880000000     0.064940000000     0.0445418  
H57      H      0.554250000000     0.283680000000     0.933060000000     0.0507731  
H58      H      0.587880000000     0.139910000000     0.004090000000     0.0345971  
H59      H      0.449510000000     0.375550000000     0.036860000000     0.0335502  
H60      H      0.455280000000     0.194300000000     0.999300000000     0.0554101  
H61      H      0.573480000000     0.328470000000     0.971840000000     0.0545976  
H62      H      0.460330000000     0.161310000000     0.077690000000     0.0341315  
H63      H      0.536910000000     0.185890000000     0.953850000000     0.0496326  
H64      H      0.527280000000     0.340560000000     0.049030000000     0.0546597  
H65      H      0.528570000000     0.366250000000     0.912160000000     0.0128505  
H66      H      0.586780000000     0.185080000000     0.047330000000     0.0281911  
H67      H      0.487650000000     0.300120000000     0.884740000000     0.076099   
H68      H      0.448690000000     0.342910000000     0.898070000000     0.086643   
H69      H      0.461450000000     0.076920000000     0.814690000000     0.0418497  
H70      H      0.611130000000     0.019400000000     0.715360000000     0.0289301  
H71      H      0.520980000000     0.953170000000     0.863380000000     0.0253093  
H72      H      0.586850000000     0.990100000000     0.823340000000     0.0431103  
H73      H      0.562010000000     0.965580000000     0.759660000000     0.0440321  
H74      H      0.502040000000     0.107630000000     0.756580000000     0.0506716  
H75      H      0.445130000000     0.058960000000     0.896390000000     0.0348513  
H76      H      0.586070000000     0.975810000000     0.678730000000     0.0334384  
H77      H      0.582730000000     0.040700000000     0.858260000000     0.0529342  
H78      H      0.475940000000     0.063460000000     0.720900000000     0.0550386  
H79      H      0.565560000000     0.969640000000     0.902860000000     0.0353799  
H80      H      0.507070000000     0.096580000000     0.852240000000     0.0488949  
H81      H      0.514320000000     0.976130000000     0.723180000000     0.0525973  
H82      H      0.525110000000     0.114250000000     0.675040000000     0.0135835  
H83      H      0.445560000000     0.008090000000     0.859760000000     0.0278154  
H84      H      0.574120000000     0.143930000000     0.732610000000     0.0760244  
H85      H      0.607760000000     0.119490000000     0.691130000000     0.0858085  
H86      H      0.563490000000     0.975310000000     0.260210000000     0.0438087  
H87      H      0.543400000000     0.090170000000     0.364390000000     0.0319778  
H88      H      0.429400000000     0.993270000000     0.207780000000     0.0288389  
H89      H      0.436160000000     0.058750000000     0.259790000000     0.0419363  
H90      H      0.471690000000     0.090060000000     0.321840000000     0.0441804  
H91      H      0.531240000000     0.948050000000     0.320450000000     0.050887   
H92      H      0.555900000000     0.965920000000     0.175760000000     0.035171   
H93      H      0.495460000000     0.098550000000     0.402710000000     0.0327727  
H94      H      0.485120000000     0.083260000000     0.229630000000     0.0500673  
H95      H      0.484090000000     0.960510000000     0.356700000000     0.0562348  
H96      H      0.430300000000     0.047360000000     0.175720000000     0.0342967  
H97      H      0.564410000000     0.029730000000     0.230610000000     0.0533971  
H98      H      0.446150000000     0.045490000000     0.357760000000     0.0499078  
H99      H      0.552600000000     0.959140000000     0.403020000000     0.0137004  
H100     H      0.507900000000     0.941960000000     0.206730000000     0.0258974  
H101     H      0.608510000000     0.973740000000     0.345950000000     0.0752058  
H102     H      0.615490000000     0.013890000000     0.388600000000     0.0843064  
H103     H      0.045370000000     0.611220000000     0.779760000000     0.0418423  
H104     H      0.999430000000     0.467510000000     0.670240000000     0.0283011  
H105     H      0.929160000000     0.531430000000     0.818160000000     0.0257706  
H106     H      0.973620000000     0.475280000000     0.770480000000     0.0429674  
H107     H      0.940390000000     0.510980000000     0.715210000000     0.0443558  
H108     H      0.072210000000     0.588090000000     0.713450000000     0.05097    
H109     H      0.024400000000     0.615520000000     0.861610000000     0.035864   
H110     H      0.953560000000     0.488480000000     0.634530000000     0.0341875  
H111     H      0.022180000000     0.480860000000     0.806810000000     0.0522963  
H112     H      0.024560000000     0.609130000000     0.679880000000     0.0545196  
H113     H      0.950870000000     0.483750000000     0.852120000000     0.0356018  
H114     H      0.068040000000     0.562030000000     0.811610000000     0.049738   
H115     H      0.947110000000     0.560840000000     0.679700000000     0.0525904  
H116     H      0.079030000000     0.569770000000     0.629850000000     0.0127519  
H117     H      0.975140000000     0.614210000000     0.824130000000     0.0278693  
H118     H      0.118920000000     0.524020000000     0.684490000000     0.0764574  
H119     H      0.099340000000     0.487440000000     0.642670000000     0.088617   
H120     H      0.942090000000     0.472600000000     0.276700000000     0.0432438  
H121     H      0.967650000000     0.592330000000     0.172000000000     0.0312972  
H122     H      0.077870000000     0.476370000000     0.319660000000     0.0264856  
H123     H      0.074680000000     0.547460000000     0.274190000000     0.0418869  
H124     H      0.036770000000     0.586970000000     0.217860000000     0.0443196  
H125     H      0.966660000000     0.450200000000     0.211850000000     0.0510133  
H126     H      0.953750000000     0.458210000000     0.360470000000     0.0354064  
H127     H      0.018060000000     0.600060000000     0.136740000000     0.0331963  
H128     H      0.029830000000     0.572870000000     0.309520000000     0.0502685  
H129     H      0.017080000000     0.458300000000     0.178770000000     0.0563469  
H130     H      0.086560000000     0.527510000000     0.354810000000     0.0357074  
H131     H      0.945890000000     0.525050000000     0.309230000000     0.0527872  
H132     H      0.062000000000     0.542320000000     0.181650000000     0.0506737  
H133     H      0.951790000000     0.464760000000     0.128600000000     0.0134902  
H134     H      0.997900000000     0.432630000000     0.325250000000     0.0251589  
H135     H      0.894050000000     0.483230000000     0.182670000000     0.0755608  
H136     H      0.893400000000     0.524920000000     0.140880000000     0.0839798  
H137     H      0.267610000000     0.017090000000     0.462400000000     0.0418731  
H138     H      0.377850000000     0.005220000000     0.618520000000     0.027844   
H139     H      0.208640000000     0.914150000000     0.550690000000     0.0257197  
H140     H      0.257830000000     0.958770000000     0.600070000000     0.0422139  
H141     H      0.329220000000     0.945550000000     0.587090000000     0.0441216  
H142     H      0.314610000000     0.071830000000     0.503240000000     0.0510316  
H143     H      0.188770000000     0.991250000000     0.447190000000     0.0364141  
H144     H      0.414730000000     0.962070000000     0.593040000000     0.0327367  
H145     H      0.225920000000     0.011520000000     0.591750000000     0.0518536  
H146     H      0.353560000000     0.027890000000     0.481200000000     0.0553921  
H147     H      0.171490000000     0.947600000000     0.587570000000     0.0348971  
H148     H      0.227850000000     0.048080000000     0.499500000000     0.0514047  
H149     H      0.359220000000     0.944880000000     0.533990000000     0.0522311  
H150     H      0.396710000000     0.090970000000     0.518050000000     0.0121791  
H151     H      0.223580000000     0.944110000000     0.469180000000     0.0263528  
H152     H      0.339250000000     0.119950000000     0.568160000000     0.0765345  
H153     H      0.386620000000     0.105320000000     0.599740000000     0.0865565  
H154     H      0.826430000000     0.029970000000     0.428640000000     0.0420151  
H155     H      0.718440000000     0.071240000000     0.579240000000     0.0280219  
H156     H      0.893490000000     0.118650000000     0.525480000000     0.0257428  
H157     H      0.827140000000     0.090050000000     0.565780000000     0.0429693  
H158     H      0.767840000000     0.125230000000     0.537320000000     0.0442748  
H159     H      0.761010000000     0.994700000000     0.457270000000     0.0508075  
H160     H      0.911660000000     0.029340000000     0.428920000000     0.0348973  
H161     H      0.682420000000     0.115620000000     0.554460000000     0.0327186  
H162     H      0.845530000000     0.030500000000     0.562040000000     0.0531455  
H163     H      0.725140000000     0.043510000000     0.441200000000     0.0549872  
H164     H      0.913890000000     0.078540000000     0.568180000000     0.0347688  
H165     H      0.848890000000     0.991520000000     0.472700000000     0.0502455  
H166     H      0.731900000000     0.122690000000     0.488330000000     0.0517171  
H167     H      0.680090000000     0.984210000000     0.482550000000     0.00996401 
H168     H      0.888020000000     0.086890000000     0.439950000000     0.0283656  
H169     H      0.740330000000     0.948480000000     0.525040000000     0.0764865  
H170     H      0.698770000000     0.966950000000     0.562220000000     0.0899615  
H171     H      0.912040000000     0.727580000000     0.507900000000     0.0419451  
H172     H      0.056410000000     0.832850000000     0.460620000000     0.0286201  
H173     H      0.003440000000     0.674660000000     0.408610000000     0.0253786  
H174     H      0.043910000000     0.743350000000     0.436350000000     0.0436774  
H175     H      0.003950000000     0.797720000000     0.402760000000     0.0438259  
H176     H      0.930750000000     0.798940000000     0.534170000000     0.0503675  
H177     H      0.923310000000     0.640750000000     0.508220000000     0.0338496  
H178     H      0.036800000000     0.877180000000     0.421730000000     0.0345832  
H179     H      0.046420000000     0.721050000000     0.493060000000     0.0550112  
H180     H      0.918330000000     0.841160000000     0.490640000000     0.0542117  
H181     H      0.053950000000     0.656360000000     0.439290000000     0.0348664  
H182     H      0.962850000000     0.710000000000     0.539680000000     0.0505572  
H183     H      0.961050000000     0.840270000000     0.415170000000     0.0511411  
H184     H      0.964960000000     0.877830000000     0.550170000000     0.0126827  
H185     H      0.921810000000     0.666290000000     0.451840000000     0.0284597  
H186     H      0.000550000000     0.809750000000     0.580760000000     0.076665   
H187     H      0.042670000000     0.848790000000     0.566010000000     0.0897902  
H188     H      0.116540000000     0.238200000000     0.469950000000     0.0436782  
H189     H      0.996510000000     0.326150000000     0.506300000000     0.0322984  
H190     H      0.115600000000     0.169940000000     0.590710000000     0.0268108  
H191     H      0.053260000000     0.225270000000     0.604560000000     0.04194    
H192     H      0.012000000000     0.288290000000     0.579710000000     0.0442713  
H193     H      0.140920000000     0.301930000000     0.500900000000     0.0504639  
H194     H      0.113480000000     0.149640000000     0.462290000000     0.0347096  
H195     H      0.988140000000     0.366520000000     0.553000000000     0.0321147  
H196     H      0.018540000000     0.201090000000     0.558660000000     0.0509294  
H197     H      0.130140000000     0.338940000000     0.548040000000     0.0553561  
H198     H      0.061790000000     0.139630000000     0.600330000000     0.0355232  
H199     H      0.059820000000     0.213970000000     0.469430000000     0.0540709  
H200     H      0.053930000000     0.332180000000     0.595330000000     0.0507514  
H201     H      0.116120000000     0.385020000000     0.481000000000     0.0133051  
H202     H      0.148890000000     0.171530000000     0.507870000000     0.0246603  
H203     H      0.104470000000     0.323830000000     0.427760000000     0.0755442  
H204     H      0.058380000000     0.361000000000     0.425250000000     0.0855108  
N1       N      0.851870000000     0.565340000000     0.003470000000    -0.191746   
N2       N      0.625980000000     0.512140000000     0.966890000000    -0.179859   
N3       N      0.815110000000     0.639190000000     0.020210000000    -0.195913   
N4       N      0.117890000000     0.515990000000     0.996340000000    -0.190673   
N5       N      0.355180000000     0.517780000000     0.968110000000    -0.179652   
N6       N      0.147830000000     0.440050000000     0.017420000000    -0.195775   
N7       N      0.496860000000     0.649440000000     0.965750000000    -0.190769   
N8       N      0.471250000000     0.876670000000     0.031900000000    -0.179925   
N9       N      0.511630000000     0.700520000000     0.901800000000    -0.195657   
N10      N      0.486480000000     0.374300000000     0.972340000000    -0.190162   
N11      N      0.524290000000     0.146670000000     0.042070000000    -0.179872   
N12      N      0.472540000000     0.318960000000     0.911630000000    -0.19554    
N13      N      0.557880000000     0.046070000000     0.672820000000    -0.190356   
N14      N      0.503610000000     0.012440000000     0.903650000000    -0.179787   
N15      N      0.584010000000     0.112240000000     0.717220000000    -0.195738   
N16      N      0.529290000000     0.031020000000     0.406290000000    -0.189549   
N17      N      0.491730000000     0.004710000000     0.171460000000    -0.179072   
N18      N      0.593720000000     0.003040000000     0.361990000000    -0.195824   
N19      N      0.019160000000     0.525010000000     0.628350000000    -0.190263   
N20      N      0.984860000000     0.550940000000     0.861150000000    -0.179398   
N21      N      0.089290000000     0.509090000000     0.669860000000    -0.195868   
N22      N      0.981720000000     0.534180000000     0.128790000000    -0.190575   
N23      N      0.020550000000     0.492270000000     0.362100000000    -0.180185   
N24      N      0.912390000000     0.511380000000     0.168380000000    -0.19587    
N25      N      0.409580000000     0.028430000000     0.557460000000    -0.190849   
N26      N      0.175310000000     0.970620000000     0.517380000000    -0.179433   
N27      N      0.359450000000     0.091910000000     0.579990000000    -0.195941   
N28      N      0.678160000000     0.046680000000     0.523850000000    -0.190562   
N29      N      0.917300000000     0.054340000000     0.498320000000    -0.179247   
N30      N      0.724470000000     0.978090000000     0.539450000000    -0.1957     
N31      N      0.007610000000     0.879590000000     0.489900000000    -0.189692   
N32      N      0.988370000000     0.643940000000     0.472660000000    -0.179536   
N33      N      0.017130000000     0.826230000000     0.553250000000    -0.195568   
N34      N      0.048750000000     0.378300000000     0.511590000000    -0.190424   
N35      N      0.086900000000     0.140170000000     0.530650000000    -0.179756   
N36      N      0.075360000000     0.336000000000     0.445480000000    -0.195975   
Ni1      Ni     0.040640000000     0.005680000000     0.549290000000     0.987861   
Ni2      Ni     0.050540000000     0.015600000000     0.469040000000     1.00239    
Ni3      Ni     0.059000000000     0.521070000000     0.493460000000     0.997897   
Ni4      Ni     0.978730000000     0.502030000000     0.496260000000     0.99843    
Ni5      Ni     0.547080000000     0.996240000000     0.541460000000     0.992207   
Ni6      Ni     0.540360000000     0.079600000000     0.537760000000     0.996629   
Ni7      Ni     0.457680000000     0.020280000000     0.036090000000     0.994366   
Ni8      Ni     0.538220000000     0.002930000000     0.039100000000     0.997398   
Ni9      Ni     0.977050000000     0.500600000000     0.992640000000     0.999767   
Ni10     Ni     0.992320000000     0.582740000000     0.997460000000     0.996393   
Ni11     Ni     0.490870000000     0.512960000000     0.008290000000     1.00657    
Ni12     Ni     0.490260000000     0.510970000000     0.927140000000     0.982396   
O1       O      0.019190000000     0.943200000000     0.536780000000    -0.454385   
O2       O      0.061930000000     0.068720000000     0.556720000000    -0.454635   
O3       O      0.978710000000     0.029430000000     0.542030000000    -0.447706   
O4       O      0.103890000000     0.983200000000     0.550830000000    -0.446395   
O5       O      0.113160000000     0.996810000000     0.476480000000    -0.458268   
O6       O      0.986770000000     0.033760000000     0.466420000000    -0.454373   
O7       O      0.068750000000     0.079510000000     0.481630000000    -0.449751   
O8       O      0.032930000000     0.950800000000     0.462260000000    -0.451938   
O9       O      0.055980000000     0.529640000000     0.558740000000    -0.453565   
O10      O      0.056670000000     0.511720000000     0.429010000000    -0.456705   
O11      O      0.041480000000     0.585290000000     0.483950000000    -0.452448   
O12      O      0.071230000000     0.455060000000     0.501430000000    -0.453409   
O13      O      0.996120000000     0.437940000000     0.505480000000    -0.45541    
O14      O      0.966430000000     0.567940000000     0.487790000000    -0.451494   
O15      O      0.981930000000     0.493010000000     0.430990000000    -0.450691   
O16      O      0.981220000000     0.510980000000     0.560930000000    -0.455001   
O17      O      0.537400000000     0.995260000000     0.476400000000    -0.45117    
O18      O      0.557220000000     0.003140000000     0.606120000000    -0.45175    
O19      O      0.481480000000     0.994390000000     0.552390000000    -0.45146    
O20      O      0.611820000000     0.003450000000     0.530430000000    -0.456762   
O21      O      0.606920000000     0.081570000000     0.533050000000    -0.450105   
O22      O      0.474760000000     0.071790000000     0.542960000000    -0.454408   
O23      O      0.545410000000     0.080400000000     0.602970000000    -0.456381   
O24      O      0.534730000000     0.073440000000     0.472760000000    -0.453621   
O25      O      0.473380000000     0.085250000000     0.041580000000    -0.454106   
O26      O      0.447210000000     0.953670000000     0.030760000000    -0.4507     
O27      O      0.457070000000     0.015830000000     0.101650000000    -0.450263   
O28      O      0.463990000000     0.024280000000     0.970770000000    -0.45096    
O29      O      0.537840000000     0.002270000000     0.973640000000    -0.453496   
O30      O      0.533070000000     0.003190000000     0.104510000000    -0.451459   
O31      O      0.522120000000     0.937780000000     0.039490000000    -0.454209   
O32      O      0.548870000000     0.069890000000     0.038220000000    -0.44943    
O33      O      0.974850000000     0.508310000000     0.927310000000    -0.45136    
O34      O      0.979180000000     0.498860000000     0.058190000000    -0.454248   
O35      O      0.912900000000     0.515100000000     0.997140000000    -0.458208   
O36      O      0.042700000000     0.491250000000     0.989310000000    -0.455812   
O37      O      0.056860000000     0.567460000000     0.999730000000    -0.45314    
O38      O      0.926280000000     0.592260000000     0.995300000000    -0.451612   
O39      O      0.989660000000     0.576320000000     0.062510000000    -0.455584   
O40      O      0.994690000000     0.583760000000     0.932080000000    -0.454019   
O41      O      0.483970000000     0.446190000000     0.007260000000    -0.456846   
O42      O      0.497870000000     0.579470000000     0.004050000000    -0.458155   
O43      O      0.424880000000     0.519960000000     0.005680000000    -0.45268    
O44      O      0.556820000000     0.506290000000     0.005000000000    -0.453372   
O45      O      0.556410000000     0.514440000000     0.929310000000    -0.451772   
O46      O      0.424100000000     0.507990000000     0.930470000000    -0.451414   
O47      O      0.487260000000     0.578740000000     0.928640000000    -0.4485     
O48      O      0.493500000000     0.443350000000     0.931770000000    -0.448161   


