data_structure

_audit_creation_method RASPA-1.0
_audit_creation_date 2023-5-19
_audit_author_name 'Poobodin Mano'

_cell_length_a    27.9554
_cell_length_b    27.1222
_cell_length_c    27.117
_cell_angle_alpha 89.9969
_cell_angle_beta  89.9969
_cell_angle_gamma 89.9969
_cell_volume      20560.4

_symmetry_cell_setting          triclinic
_symmetry_space_group_name_Hall 'P 1'
_symmetry_space_group_name_H-M  'P 1'
_symmetry_Int_Tables_number     1

_symmetry_equiv_pos_as_xyz 'x,y,z'

loop_
_atom_site_label
_atom_site_type_symbol
_atom_site_fract_x
_atom_site_fract_y
_atom_site_fract_z
_atom_site_charge
C1       C      0.020750000000     0.968610000000     0.524670000000     0.430185   
C2       C      0.095460000000     0.140040000000     0.514770000000     0.431768   
C3       C      0.979890000000     0.092730000000     0.547140000000     0.430322   
C4       C      0.137890000000     0.016410000000     0.491600000000     0.43057    
C5       C      0.971990000000     0.555890000000     0.662120000000     0.430533   
C6       C      0.038760000000     0.492420000000     0.498800000000     0.428255   
C7       C      0.012320000000     0.613230000000     0.549920000000     0.428504   
C8       C      0.998980000000     0.435710000000     0.610780000000     0.432333   
C9       C      0.577250000000     0.043810000000     0.434010000000     0.431149   
C10      C      0.541310000000     0.087310000000     0.613120000000     0.430563   
C11      C      0.470350000000     0.050690000000     0.508250000000     0.428166   
C12      C      0.648360000000     0.079660000000     0.539580000000     0.428578   
C13      C      0.537690000000     0.131670000000     0.086690000000     0.430331   
C14      C      0.494910000000     0.987610000000     0.973710000000     0.430847   
C15      C      0.519280000000     0.001360000000     0.104430000000     0.429549   
C16      C      0.512290000000     0.117900000000     0.956880000000     0.431786   
C17      C      0.977690000000     0.529960000000     0.996770000000     0.428523   
C18      C      0.040380000000     0.485880000000     0.168160000000     0.4285     
C19      C      0.923060000000     0.505760000000     0.114990000000     0.431446   
C20      C      0.094460000000     0.509710000000     0.050230000000     0.429346   
C21      C      0.528990000000     0.466380000000     0.054480000000     0.429458   
C22      C      0.501810000000     0.643940000000     0.998860000000     0.429818   
C23      C      0.426270000000     0.538850000000     0.017050000000     0.430065   
C24      C      0.604920000000     0.572220000000     0.036110000000     0.431238   
C25      C      0.854120000000     0.546680000000     0.155990000000     0.0154843  
C26      C      0.687720000000     0.558840000000     0.006840000000     0.0141384  
C27      C      0.673050000000     0.607530000000     0.083310000000     0.0153398  
C28      C      0.718680000000     0.521560000000     0.034700000000    -0.101216   
C29      C      0.817530000000     0.570830000000     0.121550000000    -0.101306   
C30      C      0.705950000000     0.573800000000     0.113240000000    -0.101755   
C31      C      0.785390000000     0.532940000000     0.096030000000     0.0169476  
C32      C      0.740600000000     0.545440000000     0.080240000000     0.0177257  
C33      C      0.843910000000     0.465420000000     0.115520000000     0.0147539  
C34      C      0.809860000000     0.486520000000     0.076760000000    -0.100676   
C35      C      0.358170000000     0.505590000000     0.968910000000     0.013223   
C36      C      0.172290000000     0.551380000000     0.051800000000     0.0139581  
C37      C      0.163090000000     0.466660000000     0.011960000000     0.0124244  
C38      C      0.210000000000     0.564150000000     0.013440000000    -0.103238   
C39      C      0.313990000000     0.474700000000     0.983340000000    -0.10289    
C40      C      0.202690000000     0.480070000000     0.974720000000    -0.10313    
C41      C      0.280210000000     0.506040000000     0.013650000000     0.0198942  
C42      C      0.235450000000     0.517800000000     0.997820000000     0.0202826  
C43      C      0.344850000000     0.560730000000     0.043160000000     0.0144584  
C44      C      0.302730000000     0.528990000000     0.058740000000    -0.102581   
C45      C      0.505340000000     0.707850000000     0.934050000000     0.0147539  
C46      C      0.436470000000     0.925210000000     0.945520000000     0.0152853  
C47      C      0.519470000000     0.922450000000     0.914530000000     0.0159565  
C48      C      0.441540000000     0.876250000000     0.972980000000    -0.100299   
C49      C      0.520070000000     0.762460000000     0.934060000000    -0.102539   
C50      C      0.528810000000     0.871870000000     0.937700000000    -0.100727   
C51      C      0.482840000000     0.794970000000     0.958980000000     0.0178624  
C52      C      0.482870000000     0.845110000000     0.953080000000     0.0165901  
C53      C      0.470270000000     0.725930000000     0.018890000000     0.0150811  
C54      C      0.446580000000     0.769100000000     0.991810000000    -0.102944   
C55      C      0.598040000000     0.192020000000     0.114780000000     0.015212   
C56      C      0.509000000000     0.398570000000     0.111240000000     0.0131062  
C57      C      0.562250000000     0.384240000000     0.036890000000     0.0145358  
C58      C      0.538430000000     0.361060000000     0.140480000000    -0.10221    
C59      C      0.595930000000     0.241130000000     0.087340000000    -0.10073    
C60      C      0.593740000000     0.349310000000     0.067220000000    -0.10312    
C61      C      0.558250000000     0.274910000000     0.109790000000     0.01694    
C62      C      0.563060000000     0.324920000000     0.106260000000     0.019484   
C63      C      0.514360000000     0.199420000000     0.143940000000     0.0148537  
C64      C      0.509900000000     0.251710000000     0.122680000000    -0.100699   
C65      C      0.544070000000     0.148770000000     0.679650000000     0.0154164  
C66      C      0.465300000000     0.149880000000     0.887320000000     0.0144646  
C67      C      0.552000000000     0.167920000000     0.892200000000     0.0167169  
C68      C      0.471480000000     0.116300000000     0.842400000000    -0.10069    
C69      C      0.558870000000     0.146070000000     0.734090000000    -0.103038   
C70      C      0.562290000000     0.139540000000     0.844550000000    -0.100987   
C71      C      0.520190000000     0.121510000000     0.764800000000     0.0179356  
C72      C      0.517120000000     0.129170000000     0.814400000000     0.0169193  
C73      C      0.510520000000     0.062620000000     0.694320000000     0.0155676  
C74      C      0.485400000000     0.087840000000     0.737940000000    -0.103403   
C75      C      0.607240000000     0.986420000000     0.368940000000     0.0139129  
C76      C      0.479510000000     0.970470000000     0.179350000000     0.0162311  
C77      C      0.566670000000     0.952190000000     0.164070000000     0.0116191  
C78      C      0.492180000000     0.999660000000     0.225470000000    -0.101039   
C79      C      0.575100000000     0.959930000000     0.331190000000    -0.101212   
C80      C      0.565630000000     0.940550000000     0.220110000000    -0.101383   
C81      C      0.551290000000     0.995030000000     0.294550000000     0.0182146  
C82      C      0.537840000000     0.979690000000     0.248700000000     0.0177491  
C83      C      0.571380000000     0.067540000000     0.346420000000     0.0157967  
C84      C      0.532660000000     0.043370000000     0.315240000000    -0.101689   
C85      C      0.940090000000     0.503960000000     0.918710000000     0.0134509  
C86      C      0.981330000000     0.606290000000     0.737680000000     0.0153037  
C87      C      0.905280000000     0.560240000000     0.721920000000     0.0148991  
C88      C      0.983770000000     0.586810000000     0.790550000000    -0.101038   
C89      C      0.902120000000     0.526200000000     0.884230000000    -0.102946   
C90      C      0.907100000000     0.536490000000     0.773180000000    -0.10203    
C91      C      0.924100000000     0.569710000000     0.857760000000     0.0189394  
C92      C      0.935470000000     0.568270000000     0.808840000000     0.0188766  
C93      C      0.978490000000     0.588690000000     0.927810000000     0.0130994  
C94      C      0.941200000000     0.609570000000     0.892370000000    -0.102331   
C95      C      0.043830000000     0.427390000000     0.237530000000     0.0121318  
C96      C      0.107350000000     0.479350000000     0.442940000000     0.0150343  
C97      C      0.023420000000     0.451170000000     0.419710000000     0.0143289  
C98      C      0.113140000000     0.491760000000     0.388080000000    -0.102698   
C99      C      0.081930000000     0.408870000000     0.273720000000    -0.102011   
C100     C      0.050360000000     0.421940000000     0.379860000000    -0.102827   
C101     C      0.098490000000     0.450650000000     0.306450000000     0.0189046  
C102     C      0.088010000000     0.454180000000     0.355530000000     0.018348   
C103     C      0.079700000000     0.513740000000     0.244370000000     0.0139037  
C104     C      0.119270000000     0.493140000000     0.277610000000    -0.10294    
C105     C      0.202010000000     0.010710000000     0.428930000000     0.0133118  
C106     C      0.398440000000     0.000700000000     0.524760000000     0.0132942  
C107     C      0.392390000000     0.080550000000     0.476760000000     0.013058   
C108     C      0.362280000000     0.976950000000     0.490060000000    -0.101918   
C109     C      0.247980000000     0.040600000000     0.437600000000    -0.101269   
C110     C      0.355150000000     0.057030000000     0.442120000000    -0.102532   
C111     C      0.280810000000     0.014100000000     0.473720000000     0.0174563  
C112     C      0.329380000000     0.015860000000     0.468970000000     0.0188333  
C113     C      0.210920000000     0.967830000000     0.509810000000     0.0160197  
C114     C      0.257360000000     0.995310000000     0.520880000000    -0.101034   
C115     C      0.721630000000     0.127410000000     0.522140000000     0.0131691  
C116     C      0.918760000000     0.106530000000     0.611830000000     0.014453   
C117     C      0.909160000000     0.144590000000     0.528520000000     0.015904   
C118     C      0.869050000000     0.082680000000     0.608670000000    -0.101774   
C119     C      0.757550000000     0.152490000000     0.556260000000    -0.102015   
C120     C      0.858910000000     0.123230000000     0.523060000000    -0.101653   
C121     C      0.788830000000     0.114130000000     0.580690000000     0.0186955  
C122     C      0.836970000000     0.110580000000     0.572940000000     0.0184234  
C123     C      0.724620000000     0.051000000000     0.576010000000     0.0129869  
C124     C      0.760960000000     0.076420000000     0.610190000000    -0.102475   
C125     C      0.976330000000     0.685030000000     0.508030000000     0.0135368  
C126     C      0.999110000000     0.896040000000     0.575300000000     0.0166298  
C127     C      0.977630000000     0.897610000000     0.486410000000     0.0139795  
C128     C      0.028330000000     0.849020000000     0.569730000000    -0.101376   
C129     C      0.990070000000     0.736250000000     0.487590000000    -0.101888   
C130     C      0.001610000000     0.847220000000     0.477980000000    -0.101615   
C131     C      0.013340000000     0.768450000000     0.526850000000     0.0169557  
C132     C      0.010860000000     0.818880000000     0.525880000000     0.0172053  
C133     C      0.057540000000     0.691260000000     0.549840000000     0.0151192  
C134     C      0.041270000000     0.742120000000     0.567080000000    -0.102171   
C135     C      0.091560000000     0.223300000000     0.479360000000     0.0156463  
C136     C      0.032080000000     0.364290000000     0.656460000000     0.0167249  
C137     C      0.966700000000     0.352570000000     0.596930000000     0.0151778  
C138     C      0.067030000000     0.333330000000     0.625740000000    -0.0999002  
C139     C      0.052540000000     0.250880000000     0.507500000000    -0.0997565  
C140     C      0.998540000000     0.327180000000     0.558820000000    -0.099178   
C141     C      0.069780000000     0.270110000000     0.557610000000     0.0175443  
C142     C      0.044520000000     0.306400000000     0.581560000000     0.0171831  
C143     C      0.140950000000     0.208640000000     0.552820000000     0.0167839  
C144     C      0.109650000000     0.242230000000     0.585020000000    -0.0997892  
H1       H      0.797960000000     0.598790000000     0.143190000000     0.0429917  
H2       H      0.710740000000     0.588500000000     0.991330000000     0.0267347  
H3       H      0.823010000000     0.452110000000     0.147820000000     0.0259221  
H4       H      0.783340000000     0.457230000000     0.068090000000     0.0424822  
H5       H      0.746500000000     0.508550000000     0.008490000000     0.0424751  
H6       H      0.723290000000     0.596320000000     0.142060000000     0.0429988  
H7       H      0.880740000000     0.574540000000     0.168310000000     0.0347215  
H8       H      0.670440000000     0.539890000000     0.975170000000     0.035676   
H9       H      0.830160000000     0.495530000000     0.042660000000     0.0515629  
H10      H      0.683440000000     0.546340000000     0.132920000000     0.0535255  
H11      H      0.862780000000     0.432840000000     0.100070000000     0.0356311  
H12      H      0.694130000000     0.639410000000     0.069380000000     0.0253652  
H13      H      0.837280000000     0.591150000000     0.092360000000     0.0542039  
H14      H      0.696510000000     0.489480000000     0.046080000000     0.050545   
H15      H      0.644850000000     0.622830000000     0.107830000000     0.0348424  
H16      H      0.835450000000     0.533440000000     0.189710000000     0.0251915  
H17      H      0.297410000000     0.460810000000     0.948860000000     0.0431076  
H18      H      0.189860000000     0.540040000000     0.086790000000     0.0262301  
H19      H      0.331740000000     0.593270000000     0.022150000000     0.0254243  
H20      H      0.277480000000     0.550690000000     0.081610000000     0.043733   
H21      H      0.234590000000     0.593160000000     0.027270000000     0.0434803  
H22      H      0.221380000000     0.445660000000     0.963890000000     0.0430798  
H23      H      0.385040000000     0.480040000000     0.952700000000     0.034925   
H24      H      0.151910000000     0.585770000000     0.059320000000     0.0364485  
H25      H      0.316090000000     0.498880000000     0.082930000000     0.0523746  
H26      H      0.186200000000     0.496010000000     0.940990000000     0.0495916  
H27      H      0.362170000000     0.574790000000     0.077270000000     0.0360238  
H28      H      0.178470000000     0.443260000000     0.041680000000     0.0298517  
H29      H      0.325470000000     0.442400000000     0.005620000000     0.0498859  
H30      H      0.191870000000     0.580280000000     0.980680000000     0.0511916  
H31      H      0.135940000000     0.444340000000     0.991940000000     0.0353951  
H32      H      0.348030000000     0.532790000000     0.940040000000     0.0292596  
H33      H      0.554820000000     0.766480000000     0.953600000000     0.0505232  
H34      H      0.423300000000     0.918180000000     0.907430000000     0.0247417  
H35      H      0.497680000000     0.740240000000     0.044960000000     0.0324624  
H36      H      0.431890000000     0.793860000000     0.020690000000     0.0432968  
H37      H      0.406900000000     0.856510000000     0.968970000000     0.0426584  
H38      H      0.550330000000     0.850510000000     0.910850000000     0.0426109  
H39      H      0.473940000000     0.702430000000     0.909470000000     0.0297128  
H40      H      0.409060000000     0.948460000000     0.964000000000     0.0350528  
H41      H      0.416430000000     0.755440000000     0.968850000000     0.0495818  
H42      H      0.551120000000     0.877040000000     0.971240000000     0.0540908  
H43      H      0.442080000000     0.706810000000     0.040690000000     0.0319182  
H44      H      0.506060000000     0.917250000000     0.876250000000     0.0239612  
H45      H      0.524710000000     0.773720000000     0.894940000000     0.043327   
H46      H      0.447820000000     0.883790000000     0.012760000000     0.0523431  
H47      H      0.553580000000     0.943300000000     0.911440000000     0.0340939  
H48      H      0.535720000000     0.686130000000     0.918840000000     0.0338218  
H49      H      0.632110000000     0.257990000000     0.089910000000     0.042599   
H50      H      0.476240000000     0.380260000000     0.096880000000     0.0265424  
H51      H      0.526160000000     0.201970000000     0.183030000000     0.0242759  
H52      H      0.488680000000     0.273710000000     0.149120000000     0.0429184  
H53      H      0.515930000000     0.343640000000     0.169150000000     0.0427244  
H54      H      0.610430000000     0.322940000000     0.041120000000     0.0428343  
H55      H      0.624570000000     0.167480000000     0.096650000000     0.0356914  
H56      H      0.497350000000     0.428020000000     0.137120000000     0.0354536  
H57      H      0.488630000000     0.249610000000     0.088110000000     0.0539399  
H58      H      0.622900000000     0.370510000000     0.085310000000     0.0494592  
H59      H      0.478640000000     0.181410000000     0.144290000000     0.0340315  
H60      H      0.536010000000     0.362660000000     0.014850000000     0.0300891  
H61      H      0.587310000000     0.234440000000     0.047870000000     0.0523822  
H62      H      0.566700000000     0.381390000000     0.160940000000     0.050945   
H63      H      0.586090000000     0.404230000000     0.010780000000     0.0333607  
H64      H      0.610910000000     0.198190000000     0.153120000000     0.0257342  
H65      H      0.592710000000     0.124820000000     0.737500000000     0.0501191  
H66      H      0.458730000000     0.188400000000     0.874920000000     0.0262267  
H67      H      0.538900000000     0.037470000000     0.708280000000     0.0320847  
H68      H      0.471730000000     0.058310000000     0.762610000000     0.0439778  
H69      H      0.439360000000     0.121060000000     0.818710000000     0.0431932  
H70      H      0.589560000000     0.160680000000     0.823710000000     0.0423608  
H71      H      0.512580000000     0.173470000000     0.675380000000     0.0306198  
H72      H      0.433310000000     0.138240000000     0.908700000000     0.0354777  
H73      H      0.454540000000     0.109850000000     0.724380000000     0.0499848  
H74      H      0.578620000000     0.103490000000     0.854380000000     0.054676   
H75      H      0.483540000000     0.040100000000     0.674230000000     0.0304906  
H76      H      0.545540000000     0.207340000000     0.883010000000     0.0239514  
H77      H      0.565060000000     0.184440000000     0.747040000000     0.0435273  
H78      H      0.473260000000     0.077220000000     0.854660000000     0.0525111  
H79      H      0.583840000000     0.166990000000     0.916780000000     0.0321949  
H80      H      0.574420000000     0.164990000000     0.658600000000     0.0323787  
H81      H      0.596730000000     0.930900000000     0.313060000000     0.0425312  
H82      H      0.471750000000     0.931390000000     0.188970000000     0.0250204  
H83      H      0.602960000000     0.076520000000     0.323080000000     0.0273395  
H84      H      0.523240000000     0.070090000000     0.285810000000     0.0442091  
H85      H      0.462030000000     0.997010000000     0.252090000000     0.0433369  
H86      H      0.548670000000     0.904020000000     0.226370000000     0.0465815  
H87      H      0.614590000000     0.961030000000     0.400220000000     0.0353433  
H88      H      0.446160000000     0.985450000000     0.162870000000     0.0355383  
H89      H      0.500310000000     0.036320000000     0.338030000000     0.0518323  
H90      H      0.603400000000     0.938400000000     0.232620000000     0.0435339  
H91      H      0.557350000000     0.103060000000     0.360850000000     0.0362979  
H92      H      0.575220000000     0.918060000000     0.143190000000     0.0283854  
H93      H      0.546110000000     0.940740000000     0.351650000000     0.0510584  
H94      H      0.497120000000     0.038840000000     0.214630000000     0.0534976  
H95      H      0.596040000000     0.979160000000     0.157650000000     0.0367343  
H96      H      0.642250000000     0.994720000000     0.351340000000     0.0259906  
H97      H      0.889190000000     0.496780000000     0.859170000000     0.042775   
H98      H      0.963430000000     0.642910000000     0.737780000000     0.0248858  
H99      H      0.012320000000     0.581690000000     0.907410000000     0.0263422  
H100     H      0.954940000000     0.642730000000     0.873120000000     0.0428016  
H101     H      0.999500000000     0.616070000000     0.813920000000     0.0434041  
H102     H      0.869530000000     0.532030000000     0.785880000000     0.0430272  
H103     H      0.922130000000     0.475120000000     0.941280000000     0.0333743  
H104     H      0.018370000000     0.612240000000     0.723930000000     0.0339716  
H105     H      0.910070000000     0.622540000000     0.914370000000     0.050645   
H106     H      0.923990000000     0.499460000000     0.770620000000     0.0514928  
H107     H      0.985950000000     0.617460000000     0.955990000000     0.0360806  
H108     H      0.883230000000     0.594380000000     0.723160000000     0.0275975  
H109     H      0.871020000000     0.538950000000     0.906390000000     0.0488899  
H110     H      0.009130000000     0.555250000000     0.791520000000     0.0534525  
H111     H      0.887490000000     0.533990000000     0.696300000000     0.0350217  
H112     H      0.968510000000     0.485790000000     0.896460000000     0.0304588  
H113     H      0.068660000000     0.376400000000     0.294490000000     0.0423121  
H114     H      0.126090000000     0.444240000000     0.451640000000     0.0285657  
H115     H      0.051530000000     0.531480000000     0.267310000000     0.0310656  
H116     H      0.133600000000     0.523380000000     0.300800000000     0.0427833  
H117     H      0.152050000000     0.492520000000     0.379560000000     0.0430952  
H118     H      0.067880000000     0.389170000000     0.396580000000     0.0479911  
H119     H      0.037880000000     0.397880000000     0.209740000000     0.0362407  
H120     H      0.124610000000     0.509330000000     0.464580000000     0.0338913  
H121     H      0.149320000000     0.479650000000     0.254380000000     0.0499699  
H122     H      0.023070000000     0.409150000000     0.353020000000     0.0441149  
H123     H      0.096240000000     0.542710000000     0.220850000000     0.0343968  
H124     H      0.998960000000     0.425340000000     0.439240000000     0.0297634  
H125     H      0.113150000000     0.395460000000     0.252130000000     0.0500486  
H126     H      0.097790000000     0.528920000000     0.381060000000     0.0511687  
H127     H      0.001320000000     0.480190000000     0.401750000000     0.0340429  
H128     H      0.009620000000     0.432980000000     0.257700000000     0.0273003  
H129     H      0.265500000000     0.045420000000     0.401120000000     0.0427236  
H130     H      0.379760000000     0.014070000000     0.558410000000     0.026152   
H131     H      0.219570000000     0.932170000000     0.491610000000     0.024596   
H132     H      0.280430000000     0.971220000000     0.543610000000     0.0431566  
H133     H      0.343660000000     0.946090000000     0.508650000000     0.0427479  
H134     H      0.330720000000     0.086780000000     0.429680000000     0.0430031  
H135     H      0.177240000000     0.032810000000     0.405700000000     0.0354048  
H136     H      0.424050000000     0.971630000000     0.536500000000     0.036111   
H137     H      0.248790000000     0.027840000000     0.544210000000     0.0547081  
H138     H      0.373400000000     0.041670000000     0.409090000000     0.0486788  
H139     H      0.192410000000     0.958710000000     0.544950000000     0.0335785  
H140     H      0.373820000000     0.102340000000     0.505760000000     0.0293807  
H141     H      0.238760000000     0.077550000000     0.452590000000     0.0513881  
H142     H      0.382140000000     0.959800000000     0.458940000000     0.0515852  
H143     H      0.414260000000     0.106480000000     0.454360000000     0.0344827  
H144     H      0.210680000000     0.976530000000     0.408080000000     0.0270167  
H145     H      0.777630000000     0.181610000000     0.536480000000     0.042727   
H146     H      0.916090000000     0.142810000000     0.630770000000     0.0267459  
H147     H      0.743790000000     0.026730000000     0.549490000000     0.0294826  
H148     H      0.783720000000     0.047340000000     0.626820000000     0.0429541  
H149     H      0.853890000000     0.082950000000     0.646570000000     0.0427411  
H150     H      0.837470000000     0.149200000000     0.500710000000     0.0433846  
H151     H      0.696900000000     0.156240000000     0.508050000000     0.0365333  
H152     H      0.942160000000     0.082500000000     0.634680000000     0.034692   
H153     H      0.741690000000     0.095360000000     0.640650000000     0.0495266  
H154     H      0.861310000000     0.088570000000     0.501330000000     0.0545647  
H155     H      0.701550000000     0.027210000000     0.599490000000     0.0355701  
H156     H      0.906620000000     0.182460000000     0.544060000000     0.0234071  
H157     H      0.737330000000     0.172140000000     0.585610000000     0.0512915  
H158     H      0.872570000000     0.043810000000     0.596160000000     0.0510782  
H159     H      0.925730000000     0.148200000000     0.491420000000     0.0331182  
H160     H      0.740750000000     0.111570000000     0.489860000000     0.0268808  
H161     H      0.015220000000     0.731880000000     0.456140000000     0.0486224  
H162     H      0.961550000000     0.886510000000     0.585040000000     0.0253827  
H163     H      0.082190000000     0.694830000000     0.517830000000     0.0283096  
H164     H      0.074020000000     0.763120000000     0.577080000000     0.0430823  
H165     H      0.024670000000     0.828560000000     0.605020000000     0.042904   
H166     H      0.979210000000     0.826590000000     0.451400000000     0.042896   
H167     H      0.945030000000     0.689200000000     0.533030000000     0.033015   
H168     H      0.013540000000     0.917790000000     0.606670000000     0.0353622  
H169     H      0.018400000000     0.738190000000     0.600400000000     0.0507275  
H170     H      0.036760000000     0.853480000000     0.459880000000     0.0514205  
H171     H      0.077990000000     0.674310000000     0.580660000000     0.0355861  
H172     H      0.938970000000     0.891900000000     0.494250000000     0.0260825  
H173     H      0.956480000000     0.753220000000     0.473870000000     0.04347    
H174     H      0.066670000000     0.858510000000     0.564300000000     0.0523725  
H175     H      0.979980000000     0.919480000000     0.451830000000     0.0357877  
H176     H      0.965420000000     0.661250000000     0.476560000000     0.03235    
H177     H      0.040580000000     0.281760000000     0.483560000000     0.0423704  
H178     H      0.013590000000     0.339850000000     0.683360000000     0.024028   
H179     H      0.170460000000     0.230890000000     0.536570000000     0.0236438  
H180     H      0.134570000000     0.268400000000     0.603220000000     0.0423674  
H181     H      0.083600000000     0.306930000000     0.651920000000     0.0424175  
H182     H      0.976730000000     0.297450000000     0.541830000000     0.0426619  
H183     H      0.076340000000     0.205970000000     0.445680000000     0.0344711  
H184     H      0.051990000000     0.391990000000     0.678670000000     0.0333428  
H185     H      0.092620000000     0.219230000000     0.614060000000     0.0528658  
H186     H      0.008260000000     0.354200000000     0.529650000000     0.0519315  
H187     H      0.158370000000     0.179870000000     0.575880000000     0.0330643  
H188     H      0.951320000000     0.324520000000     0.622360000000     0.0256454  
H189     H      0.021780000000     0.225570000000     0.513520000000     0.0523955  
H190     H      0.095580000000     0.358020000000     0.611440000000     0.0532387  
H191     H      0.936030000000     0.370830000000     0.578290000000     0.0350068  
H192     H      0.119350000000     0.249830000000     0.466710000000     0.0247527  
N1       N      0.652870000000     0.580550000000     0.041120000000    -0.180232   
N2       N      0.876790000000     0.504580000000     0.131200000000    -0.180352   
N3       N      0.140950000000     0.510920000000     0.034500000000    -0.179327   
N4       N      0.378090000000     0.532200000000     0.011840000000    -0.179805   
N5       N      0.483410000000     0.949130000000     0.943390000000    -0.18078    
N6       N      0.493080000000     0.691250000000     0.984220000000    -0.180376   
N7       N      0.536390000000     0.418880000000     0.069310000000    -0.179689   
N8       N      0.549790000000     0.170800000000     0.115970000000    -0.18017    
N9       N      0.509380000000     0.147810000000     0.916530000000    -0.180783   
N10      N      0.532070000000     0.099300000000     0.660940000000    -0.181004   
N11      N      0.520950000000     0.972820000000     0.146030000000    -0.179535   
N12      N      0.585540000000     0.033020000000     0.385510000000    -0.180077   
N13      N      0.954000000000     0.572590000000     0.705840000000    -0.180001   
N14      N      0.962060000000     0.542060000000     0.950550000000    -0.179277   
N15      N      0.056280000000     0.474550000000     0.455330000000    -0.180386   
N16      N      0.057830000000     0.474450000000     0.213880000000    -0.178853   
N17      N      0.422610000000     0.042690000000     0.500560000000    -0.179146   
N18      N      0.180740000000     0.997380000000     0.476680000000    -0.180016   
N19      N      0.937920000000     0.113810000000     0.561910000000    -0.180516   
N20      N      0.695970000000     0.087510000000     0.548250000000    -0.17903    
N21      N      0.999720000000     0.923190000000     0.528460000000    -0.179824   
N22      N      0.015760000000     0.661420000000     0.535470000000    -0.179901   
N23      N      0.996250000000     0.387400000000     0.624640000000    -0.180616   
N24      N      0.112710000000     0.187100000000     0.512840000000    -0.180856   
Ni1      Ni     0.071070000000     0.050480000000     0.561260000000     0.998432   
Ni2      Ni     0.046320000000     0.057770000000     0.477560000000     0.994716   
Ni3      Ni     0.044940000000     0.527180000000     0.596740000000     0.996774   
Ni4      Ni     0.966030000000     0.521660000000     0.564070000000     0.997261   
Ni5      Ni     0.563880000000     0.023160000000     0.535160000000     0.988939   
Ni6      Ni     0.554890000000     0.107350000000     0.512320000000     1.00431    
Ni7      Ni     0.474770000000     0.066380000000     0.038130000000     1.00558    
Ni8      Ni     0.557530000000     0.052600000000     0.022710000000     0.988877   
Ni9      Ni     0.005790000000     0.465130000000     0.072440000000     0.991404   
Ni10     Ni     0.011640000000     0.550350000000     0.092640000000     1.00281    
Ni11     Ni     0.509060000000     0.567450000000     0.068250000000     1.00251    
Ni12     Ni     0.522220000000     0.542940000000     0.984990000000     0.995038   
O1       O      0.041280000000     0.987320000000     0.562500000000    -0.455659   
O2       O      0.099540000000     0.114640000000     0.554480000000    -0.451871   
O3       O      0.011120000000     0.079910000000     0.579350000000    -0.452161   
O4       O      0.128840000000     0.020640000000     0.537740000000    -0.452589   
O5       O      0.107200000000     0.030530000000     0.459410000000    -0.451455   
O6       O      0.987840000000     0.085930000000     0.501100000000    -0.452473   
O7       O      0.073710000000     0.122210000000     0.477230000000    -0.454338   
O8       O      0.019670000000     0.992480000000     0.483780000000    -0.449087   
O9       O      0.017360000000     0.552460000000     0.656280000000    -0.451896   
O10      O      0.067370000000     0.502450000000     0.534450000000    -0.450528   
O11      O      0.047850000000     0.592710000000     0.571550000000    -0.454983   
O12      O      0.036660000000     0.460940000000     0.620410000000    -0.451915   
O13      O      0.964320000000     0.455040000000     0.586690000000    -0.454212   
O14      O      0.973380000000     0.589070000000     0.542850000000    -0.448686   
O15      O      0.993590000000     0.498870000000     0.503720000000    -0.452501   
O16      O      0.943410000000     0.543540000000     0.627240000000    -0.451593   
O17      O      0.579770000000     0.010040000000     0.467130000000    -0.447507   
O18      O      0.547080000000     0.042000000000     0.601040000000    -0.450547   
O19      O      0.497340000000     0.014680000000     0.521030000000    -0.451803   
O20      O      0.629780000000     0.037420000000     0.548830000000    -0.45059    
O21      O      0.622410000000     0.114630000000     0.522300000000    -0.452053   
O22      O      0.487940000000     0.094100000000     0.502980000000    -0.450713   
O23      O      0.544430000000     0.121500000000     0.580650000000    -0.454227   
O24      O      0.566160000000     0.087980000000     0.445980000000    -0.458226   
O25      O      0.493570000000     0.120780000000     0.079390000000    -0.451076   
O26      O      0.461690000000     0.011010000000     0.996420000000    -0.453739   
O27      O      0.480230000000     0.023290000000     0.093170000000    -0.458424   
O28      O      0.474360000000     0.108350000000     0.981580000000    -0.456297   
O29      O      0.552460000000     0.098540000000     0.969060000000    -0.450194   
O30      O      0.556970000000     0.007930000000     0.078110000000    -0.447286   
O31      O      0.538810000000     0.999990000000     0.979570000000    -0.451723   
O32      O      0.570800000000     0.106330000000     0.066070000000    -0.453711   
O33      O      0.982080000000     0.484500000000     0.008990000000    -0.450621   
O34      O      0.029060000000     0.451430000000     0.137840000000    -0.448843   
O35      O      0.941890000000     0.466600000000     0.097100000000    -0.453991   
O36      O      0.070400000000     0.469430000000     0.048310000000    -0.44984    
O37      O      0.075410000000     0.548880000000     0.067860000000    -0.456021   
O38      O      0.947170000000     0.545980000000     0.116940000000    -0.451977   
O39      O      0.035500000000     0.531190000000     0.155790000000    -0.454205   
O40      O      0.988530000000     0.564150000000     0.027490000000    -0.452848   
O41      O      0.518240000000     0.499590000000     0.086310000000    -0.451668   
O42      O      0.499600000000     0.633080000000     0.044780000000    -0.454566   
O43      O      0.442740000000     0.555040000000     0.058030000000    -0.456324   
O44      O      0.576660000000     0.579410000000     0.072700000000    -0.452366   
O45      O      0.588520000000     0.556720000000     0.994820000000    -0.453863   
O46      O      0.454640000000     0.529950000000     0.980900000000    -0.450039   
O47      O      0.511450000000     0.610580000000     0.966770000000    -0.450226   
O48      O      0.533020000000     0.477510000000     0.008740000000    -0.452967   


