data_structure

_audit_creation_method RASPA-1.0
_audit_creation_date 2023-5-25
_audit_author_name 'Poobodin Mano'

_cell_length_a    29.3945
_cell_length_b    29.0995
_cell_length_c    29.3942
_cell_angle_alpha 89.997
_cell_angle_beta  89.997
_cell_angle_gamma 89.997
_cell_volume      25142.8

_symmetry_cell_setting          triclinic
_symmetry_space_group_name_Hall 'P 1'
_symmetry_space_group_name_H-M  'P 1'
_symmetry_Int_Tables_number     1

_symmetry_equiv_pos_as_xyz 'x,y,z'

loop_
_atom_site_label
_atom_site_type_symbol
_atom_site_fract_x
_atom_site_fract_y
_atom_site_fract_z
_atom_site_charge
C1       C      0.995410000000     0.944490000000     0.499820000000     0.430463   
C2       C      0.002750000000     0.116780000000     0.531200000000     0.432218   
C3       C      0.911400000000     0.033750000000     0.510650000000     0.429795   
C4       C      0.084590000000     0.028710000000     0.521900000000     0.431915   
C5       C      0.017590000000     0.532620000000     0.588230000000     0.431246   
C6       C      0.010150000000     0.522750000000     0.415020000000     0.430997   
C7       C      0.016110000000     0.615530000000     0.497450000000     0.430614   
C8       C      0.010370000000     0.440510000000     0.507730000000     0.431315   
C9       C      0.494850000000     0.012320000000     0.407540000000     0.433365   
C10      C      0.495970000000     0.014180000000     0.581100000000     0.430031   
C11      C      0.409250000000     0.015370000000     0.496360000000     0.432056   
C12      C      0.582720000000     0.010040000000     0.491260000000     0.431771   
C13      C      0.504100000000     0.077860000000     0.991780000000     0.430713   
C14      C      0.534260000000     0.905690000000     0.003000000000     0.433404   
C15      C      0.523700000000     0.995490000000     0.082900000000     0.43208    
C16      C      0.516080000000     0.986920000000     0.909680000000     0.432102   
C17      C      0.990790000000     0.496220000000     0.910110000000     0.43328    
C18      C      0.999920000000     0.509640000000     0.083030000000     0.428589   
C19      C      0.909910000000     0.495440000000     0.001700000000     0.432472   
C20      C      0.082570000000     0.509680000000     0.989710000000     0.430673   
C21      C      0.499570000000     0.405850000000     0.017620000000     0.431427   
C22      C      0.498750000000     0.580910000000     0.008780000000     0.432251   
C23      C      0.411640000000     0.493020000000     0.007040000000     0.430154   
C24      C      0.584640000000     0.495260000000     0.020500000000     0.430348   
C25      C      0.653890000000     0.484260000000     0.066670000000     0.0148029  
C26      C      0.834200000000     0.526350000000     0.982120000000     0.0147633  
C27      C      0.842460000000     0.449760000000     0.023400000000     0.0347146  
C28      C      0.794540000000     0.539060000000     0.013060000000    -0.102715   
C29      C      0.698360000000     0.458830000000     0.055890000000    -0.104123   
C30      C      0.802320000000     0.462720000000     0.054750000000    -0.106985   
C31      C      0.726430000000     0.487230000000     0.023170000000     0.023157   
C32      C      0.771270000000     0.496160000000     0.030410000000     0.0234257  
C33      C      0.657180000000     0.524840000000     0.990560000000     0.0148522  
C34      C      0.702210000000     0.501150000000     0.979840000000    -0.103692   
C35      C      0.827000000000     0.419230000000     0.986510000000     0.0459702  
C36      C      0.338020000000     0.512460000000     0.042070000000     0.0155864  
C37      C      0.153900000000     0.476140000000     0.960410000000     0.0151564  
C38      C      0.152020000000     0.557250000000     0.992050000000     0.0359422  
C39      C      0.200540000000     0.467950000000     0.982020000000    -0.102823   
C40      C      0.299150000000     0.542290000000     0.024030000000    -0.104105   
C41      C      0.197620000000     0.548830000000     0.016340000000    -0.107044   
C42      C      0.271740000000     0.514630000000     0.990240000000     0.0209644  
C43      C      0.225420000000     0.512530000000     0.991870000000     0.0243768  
C44      C      0.341130000000     0.468610000000     0.967760000000     0.0136091  
C45      C      0.299090000000     0.494870000000     0.951040000000    -0.102434   
C46      C      0.159170000000     0.581820000000     0.948780000000     0.0445574  
C47      C      0.513100000000     0.836190000000     0.045190000000     0.017466   
C48      C      0.517070000000     0.650530000000     0.964060000000     0.0140834  
C49      C      0.487030000000     0.656870000000     0.045000000000     0.0349724  
C50      C      0.554900000000     0.685360000000     0.974690000000    -0.103421   
C51      C      0.496370000000     0.790960000000     0.025550000000    -0.104209   
C52      C      0.523400000000     0.693250000000     0.055050000000    -0.106035   
C53      C      0.535730000000     0.763620000000     0.006070000000     0.0226205  
C54      C      0.538570000000     0.717270000000     0.011850000000     0.0230854  
C55      C      0.581340000000     0.835790000000     0.993410000000     0.0156009  
C56      C      0.566280000000     0.789430000000     0.973030000000    -0.103913   
C57      C      0.443210000000     0.679000000000     0.034570000000     0.0378226  
C58      C      0.452190000000     0.143650000000     0.004440000000     0.0140323  
C59      C      0.528540000000     0.333260000000     0.985380000000     0.0152687  
C60      C      0.482090000000     0.333460000000     0.058450000000     0.0342116  
C61      C      0.501630000000     0.292210000000     0.968000000000    -0.103142   
C62      C      0.460460000000     0.185610000000     0.035190000000    -0.103391   
C63      C      0.455830000000     0.290610000000     0.041650000000    -0.106582   
C64      C      0.493150000000     0.218340000000     0.012010000000     0.0216536  
C65      C      0.484330000000     0.264050000000     0.007610000000     0.0234299  
C66      C      0.528480000000     0.155120000000     0.966680000000     0.0151758  
C67      C      0.537570000000     0.196970000000     0.996520000000    -0.10311    
C68      C      0.518420000000     0.319950000000     0.090280000000     0.0435346  
C69      C      0.466830000000     0.979150000000     0.651730000000     0.0143552  
C70      C      0.553620000000     0.003170000000     0.836410000000     0.0153572  
C71      C      0.477270000000     0.962380000000     0.838600000000     0.0338528  
C72      C      0.537130000000     0.034480000000     0.798060000000    -0.103951   
C73      C      0.489630000000     0.966230000000     0.696690000000    -0.102703   
C74      C      0.462170000000     0.990250000000     0.796700000000    -0.105563   
C75      C      0.503820000000     0.008420000000     0.723500000000     0.0197445  
C76      C      0.502310000000     0.009000000000     0.769880000000     0.0231914  
C77      C      0.504890000000     0.056780000000     0.653110000000     0.0148906  
C78      C      0.530360000000     0.044030000000     0.696770000000    -0.102854   
C79      C      0.492250000000     0.916280000000     0.824400000000     0.0397753  
C80      C      0.509560000000     0.053800000000     0.335750000000     0.0162054  
C81      C      0.495300000000     0.964690000000     0.155560000000     0.0155091  
C82      C      0.566540000000     0.014250000000     0.152610000000     0.0357038  
C83      C      0.481020000000     0.987580000000     0.199980000000    -0.10334    
C84      C      0.545310000000     0.041240000000     0.299900000000    -0.106244   
C85      C      0.551960000000     0.038270000000     0.196950000000    -0.10757    
C86      C      0.526660000000     0.002740000000     0.270800000000     0.0234032  
C87      C      0.521770000000     0.006960000000     0.224950000000     0.0247854  
C88      C      0.478590000000     0.972770000000     0.334580000000     0.0148199  
C89      C      0.512290000000     0.960240000000     0.296960000000    -0.103511   
C90      C      0.600370000000     0.978100000000     0.162080000000     0.0458544  
C91      C      0.982680000000     0.554930000000     0.661620000000     0.0151931  
C92      C      0.005200000000     0.452990000000     0.839100000000     0.0154545  
C93      C      0.961240000000     0.528140000000     0.838080000000     0.0362671  
C94      C      0.033700000000     0.468700000000     0.798080000000    -0.104394   
C95      C      0.965770000000     0.520530000000     0.696870000000    -0.102687   
C96      C      0.988520000000     0.543910000000     0.796600000000    -0.107275   
C97      C      0.005540000000     0.501640000000     0.723880000000     0.0197142  
C98      C      0.007220000000     0.503340000000     0.770140000000     0.0257804  
C99      C      0.059180000000     0.515820000000     0.659650000000     0.0127699  
C100     C      0.043330000000     0.480720000000     0.695500000000    -0.101999   
C101     C      0.917080000000     0.509200000000     0.823640000000     0.0388879  
C102     C      0.975500000000     0.478110000000     0.156770000000     0.0133293  
C103     C      0.049440000000     0.532710000000     0.341970000000     0.0161938  
C104     C      0.972510000000     0.492700000000     0.345930000000     0.0331968  
C105     C      0.035740000000     0.556440000000     0.297700000000    -0.104436   
C106     C      0.995910000000     0.473090000000     0.204540000000    -0.102482   
C107     C      0.961190000000     0.511740000000     0.298310000000    -0.105462   
C108     C      0.006960000000     0.519140000000     0.226060000000     0.0197237  
C109     C      0.003290000000     0.525850000000     0.271850000000     0.0235281  
C110     C      0.008420000000     0.558220000000     0.150830000000     0.0154351  
C111     C      0.033380000000     0.551800000000     0.196000000000    -0.103225   
C112     C      0.986650000000     0.444300000000     0.342200000000     0.0398979  
C113     C      0.153570000000     0.012670000000     0.566730000000     0.0153274  
C114     C      0.336650000000     0.056790000000     0.483650000000     0.0149458  
C115     C      0.337690000000     0.974860000000     0.514220000000     0.0350071  
C116     C      0.299680000000     0.069230000000     0.518080000000    -0.103418   
C117     C      0.198790000000     0.990080000000     0.553800000000    -0.10375    
C118     C      0.301600000000     0.987940000000     0.549880000000    -0.107312   
C119     C      0.227100000000     0.022870000000     0.525560000000     0.0230978  
C120     C      0.272850000000     0.026980000000     0.531690000000     0.023852   
C121     C      0.156940000000     0.062910000000     0.496730000000     0.0129787  
C122     C      0.203300000000     0.042820000000     0.484270000000    -0.102131   
C123     C      0.316410000000     0.951990000000     0.474870000000     0.0433303  
C124     C      0.840550000000     0.057830000000     0.471240000000     0.0133515  
C125     C      0.653980000000     0.965880000000     0.498010000000     0.0158821  
C126     C      0.653290000000     0.044670000000     0.461120000000     0.0344268  
C127     C      0.698390000000     0.977310000000     0.522690000000    -0.103591   
C128     C      0.799480000000     0.029780000000     0.454910000000    -0.102391   
C129     C      0.699790000000     0.055330000000     0.482510000000    -0.105705   
C130     C      0.772040000000     0.010830000000     0.494510000000     0.019498   
C131     C      0.725660000000     0.012230000000     0.495880000000     0.0238672  
C132     C      0.837630000000     0.016830000000     0.546930000000     0.0144922  
C133     C      0.799710000000     0.985330000000     0.529770000000    -0.103017   
C134     C      0.659250000000     0.030360000000     0.413430000000     0.038311   
C135     C      0.011480000000     0.879090000000     0.448520000000     0.0143014  
C136     C      0.979580000000     0.688520000000     0.519050000000     0.0155148  
C137     C      0.057980000000     0.687750000000     0.482030000000     0.0344259  
C138     C      0.966140000000     0.729770000000     0.490190000000    -0.103513   
C139     C      0.039410000000     0.835460000000     0.458180000000    -0.10356    
C140     C      0.044630000000     0.730380000000     0.453520000000    -0.10695    
C141     C      0.011900000000     0.802960000000     0.487510000000     0.0219226  
C142     C      0.007830000000     0.757410000000     0.477750000000     0.0237242  
C143     C      0.966900000000     0.867660000000     0.521150000000     0.0148572  
C144     C      0.993300000000     0.823640000000     0.531040000000    -0.102938   
C145     C      0.085360000000     0.701560000000     0.521720000000     0.0451012  
C146     C      0.046150000000     0.364200000000     0.496650000000     0.0134552  
C147     C      0.995230000000     0.184190000000     0.581790000000     0.0158832  
C148     C      0.041930000000     0.187920000000     0.509130000000     0.0357505  
C149     C      0.976360000000     0.232590000000     0.572590000000    -0.104355   
C150     C      0.059480000000     0.329830000000     0.533590000000    -0.102176   
C151     C      0.024560000000     0.236590000000     0.500130000000    -0.106959   
C152     C      0.017550000000     0.305400000000     0.551200000000     0.0193326  
C153     C      0.009240000000     0.260000000000     0.543560000000     0.0258476  
C154     C      0.967850000000     0.371220000000     0.531950000000     0.0127179  
C155     C      0.981430000000     0.337340000000     0.569760000000    -0.102449   
C156     C      0.087450000000     0.189630000000     0.530030000000     0.0368298  
H1       H      0.716140000000     0.453060000000     0.088740000000     0.0466564  
H2       H      0.820160000000     0.511930000000     0.950010000000     0.0354084  
H3       H      0.664760000000     0.559430000000     0.004780000000     0.0265601  
H4       H      0.722770000000     0.523230000000     0.957040000000     0.0480258  
H5       H      0.771300000000     0.563350000000     0.995610000000     0.0455414  
H6       H      0.784780000000     0.430670000000     0.065480000000     0.0498195  
H7       H      0.632030000000     0.461350000000     0.087670000000     0.0386674  
H8       H      0.853080000000     0.558110000000     0.972920000000     0.038675   
H9       H      0.694880000000     0.469380000000     0.960170000000     0.0592177  
H10      H      0.815720000000     0.479490000000     0.085980000000     0.051941   
H11      H      0.638070000000     0.530160000000     0.958340000000     0.0370968  
H12      H      0.690720000000     0.424890000000     0.040310000000     0.0566719  
H13      H      0.808250000000     0.558060000000     0.042880000000     0.0539231  
H14      H      0.867290000000     0.430050000000     0.044270000000     0.0352461  
H15      H      0.661900000000     0.515320000000     0.087250000000     0.0309639  
H16      H      0.278760000000     0.553300000000     0.053910000000     0.0465985  
H17      H      0.159250000000     0.486090000000     0.924270000000     0.0320287  
H18      H      0.329600000000     0.435000000000     0.981590000000     0.0272414  
H19      H      0.279030000000     0.472550000000     0.928050000000     0.0462409  
H20      H      0.219920000000     0.444010000000     0.960090000000     0.0453259  
H21      H      0.216080000000     0.582160000000     0.018320000000     0.0510243  
H22      H      0.358850000000     0.533800000000     0.065560000000     0.038938   
H23      H      0.134740000000     0.443200000000     0.960110000000     0.0368531  
H24      H      0.310860000000     0.524150000000     0.929770000000     0.0571422  
H25      H      0.190990000000     0.537020000000     0.051710000000     0.0525595  
H26      H      0.363700000000     0.461190000000     0.938310000000     0.0373004  
H27      H      0.313060000000     0.573440000000     0.007110000000     0.0584405  
H28      H      0.195410000000     0.449890000000     0.014950000000     0.0537315  
H29      H      0.131260000000     0.579960000000     0.014340000000     0.0349124  
H30      H      0.323470000000     0.483510000000     0.062080000000     0.0305409  
H31      H      0.476450000000     0.772710000000     0.051880000000     0.052804   
H32      H      0.488090000000     0.669050000000     0.948050000000     0.0367942  
H33      H      0.605920000000     0.829090000000     0.021410000000     0.0325818  
H34      H      0.597650000000     0.769620000000     0.965220000000     0.0462989  
H35      H      0.563350000000     0.703590000000     0.942620000000     0.0464371  
H36      H      0.512430000000     0.716850000000     0.082580000000     0.0488218  
H37      H      0.483430000000     0.857040000000     0.056420000000     0.0366944  
H38      H      0.530370000000     0.625610000000     0.938660000000     0.0381263  
H39      H      0.547450000000     0.795450000000     0.940780000000     0.05672    
H40      H      0.553610000000     0.675210000000     0.069180000000     0.0546452  
H41      H      0.598970000000     0.856250000000     0.966720000000     0.0366027  
H42      H      0.472230000000     0.798460000000     0.997400000000     0.0628821  
H43      H      0.585870000000     0.666910000000     0.986430000000     0.0515959  
H44      H      0.481820000000     0.636420000000     0.076500000000     0.036921   
H45      H      0.533810000000     0.828570000000     0.075970000000     0.0287794  
H46      H      0.426830000000     0.201660000000     0.041820000000     0.045215   
H47      H      0.560380000000     0.320390000000     0.001370000000     0.0328898  
H48      H      0.513610000000     0.167230000000     0.934000000000     0.0265239  
H49      H      0.560690000000     0.221050000000     0.978710000000     0.0471403  
H50      H      0.522080000000     0.272430000000     0.943120000000     0.0454466  
H51      H      0.446040000000     0.269610000000     0.071690000000     0.0492533  
H52      H      0.431320000000     0.118270000000     0.023540000000     0.0369364  
H53      H      0.538780000000     0.354890000000     0.955950000000     0.0382008  
H54      H      0.556360000000     0.185470000000     0.027310000000     0.0583792  
H55      H      0.423900000000     0.301790000000     0.024670000000     0.0515446  
H56      H      0.561310000000     0.138010000000     0.958560000000     0.0370493  
H57      H      0.475160000000     0.174320000000     0.068180000000     0.0543717  
H58      H      0.471710000000     0.305180000000     0.948740000000     0.0540561  
H59      H      0.457690000000     0.355310000000     0.077670000000     0.0352948  
H60      H      0.432290000000     0.154840000000     0.974210000000     0.0297053  
H61      H      0.466850000000     0.942700000000     0.715550000000     0.05003    
H62      H      0.572470000000     0.973700000000     0.821360000000     0.0350059  
H63      H      0.473340000000     0.075760000000     0.662320000000     0.03011    
H64      H      0.534770000000     0.076350000000     0.716410000000     0.044507   
H65      H      0.567640000000     0.044440000000     0.778100000000     0.0450798  
H66      H      0.437590000000     0.970290000000     0.776030000000     0.0490241  
H67      H      0.462450000000     0.947570000000     0.630900000000     0.0380877  
H68      H      0.578090000000     0.023060000000     0.857480000000     0.037844   
H69      H      0.564520000000     0.030100000000     0.688200000000     0.0522589  
H70      H      0.442530000000     0.020390000000     0.809120000000     0.0532874  
H71      H      0.526780000000     0.080240000000     0.632770000000     0.0359847  
H72      H      0.520870000000     0.946160000000     0.688970000000     0.0573846  
H73      H      0.521560000000     0.066110000000     0.812470000000     0.0519137  
H74      H      0.447060000000     0.957540000000     0.860830000000     0.0373713  
H75      H      0.432210000000     0.992480000000     0.659420000000     0.027308   
H76      H      0.552960000000     0.072920000000     0.280340000000     0.0481008  
H77      H      0.512810000000     0.931880000000     0.163910000000     0.0319948  
H78      H      0.445740000000     0.982280000000     0.318360000000     0.0292129  
H79      H      0.498230000000     0.932530000000     0.275250000000     0.0477705  
H80      H      0.460580000000     0.963040000000     0.220270000000     0.0462997  
H81      H      0.583280000000     0.048550000000     0.215590000000     0.0520517  
H82      H      0.524210000000     0.080710000000     0.358270000000     0.0390925  
H83      H      0.464210000000     0.955600000000     0.135990000000     0.0372574  
H84      H      0.543180000000     0.945450000000     0.313140000000     0.0598116  
H85      H      0.532750000000     0.070080000000     0.188600000000     0.0531548  
H86      H      0.472270000000     0.942070000000     0.356180000000     0.0396176  
H87      H      0.577100000000     0.029660000000     0.316870000000     0.0634045  
H88      H      0.457870000000     0.016640000000     0.191810000000     0.05411    
H89      H      0.583390000000     0.040490000000     0.130830000000     0.0357291  
H90      H      0.479430000000     0.068820000000     0.318320000000     0.0301312  
H91      H      0.938560000000     0.536030000000     0.717940000000     0.0507302  
H92      H      0.976510000000     0.431500000000     0.826600000000     0.0368534  
H93      H      0.076830000000     0.544510000000     0.677370000000     0.032817   
H94      H      0.073490000000     0.471110000000     0.716160000000     0.0452817  
H95      H      0.042210000000     0.437490000000     0.778040000000     0.0459302  
H96      H      0.968390000000     0.568510000000     0.776010000000     0.0499172  
H97      H      0.953640000000     0.566530000000     0.640290000000     0.0376038  
H98      H      0.026870000000     0.431030000000     0.861230000000     0.0367723  
H99      H      0.030420000000     0.449300000000     0.678290000000     0.0516332  
H100     H      0.018150000000     0.564060000000     0.809040000000     0.0581934  
H101     H      0.084200000000     0.498860000000     0.636770000000     0.0383549  
H102     H      0.949460000000     0.491370000000     0.678670000000     0.0576082  
H103     H      0.065880000000     0.484680000000     0.810090000000     0.0537157  
H104     H      0.953680000000     0.558970000000     0.859090000000     0.0371371  
H105     H      0.996020000000     0.585590000000     0.679890000000     0.0291074  
H106     H      0.972830000000     0.451620000000     0.225400000000     0.0495572  
H107     H      0.069750000000     0.501500000000     0.333830000000     0.0358869  
H108     H      0.975760000000     0.576470000000     0.157170000000     0.0312604  
H109     H      0.036590000000     0.586430000000     0.211620000000     0.0447663  
H110     H      0.067620000000     0.563080000000     0.278490000000     0.0454469  
H111     H      0.938800000000     0.487520000000     0.279670000000     0.0490388  
H112     H      0.975950000000     0.444010000000     0.139700000000     0.0379128  
H113     H      0.071800000000     0.556610000000     0.361310000000     0.0363445  
H114     H      0.068050000000     0.537840000000     0.189830000000     0.0526673  
H115     H      0.940320000000     0.543260000000     0.302990000000     0.0527636  
H116     H      0.029690000000     0.580410000000     0.128490000000     0.0356483  
H117     H      0.028260000000     0.453530000000     0.201620000000     0.056175   
H118     H      0.019090000000     0.589900000000     0.305160000000     0.0519541  
H119     H      0.940750000000     0.493180000000     0.366470000000     0.0365255  
H120     H      0.939190000000     0.488200000000     0.160490000000     0.0277415  
H121     H      0.215990000000     0.980880000000     0.586200000000     0.0463622  
H122     H      0.319900000000     0.048630000000     0.450700000000     0.0326087  
H123     H      0.162630000000     0.095620000000     0.515450000000     0.0353746  
H124     H      0.223300000000     0.069320000000     0.466100000000     0.0476974  
H125     H      0.278340000000     0.097740000000     0.505050000000     0.0471755  
H126     H      0.281790000000     0.956650000000     0.558560000000     0.0495692  
H127     H      0.132110000000     0.986660000000     0.584320000000     0.0373049  
H128     H      0.358670000000     0.087270000000     0.477830000000     0.0377978  
H129     H      0.197970000000     0.014430000000     0.459530000000     0.0586821  
H130     H      0.318870000000     0.999520000000     0.581520000000     0.0525261  
H131     H      0.138400000000     0.071650000000     0.464920000000     0.0395755  
H132     H      0.192410000000     0.958130000000     0.534070000000     0.0561612  
H133     H      0.316540000000     0.082910000000     0.549110000000     0.0545326  
H134     H      0.360710000000     0.949370000000     0.530520000000     0.0364806  
H135     H      0.160310000000     0.041110000000     0.591120000000     0.0333866  
H136     H      0.779260000000     0.050530000000     0.430670000000     0.0492567  
H137     H      0.662060000000     0.946740000000     0.466260000000     0.0359279  
H138     H      0.822110000000     0.046390000000     0.565260000000     0.0298605  
H139     H      0.779350000000     0.975120000000     0.559940000000     0.0444085  
H140     H      0.717250000000     0.944440000000     0.526570000000     0.0456346  
H141     H      0.719140000000     0.078910000000     0.460110000000     0.0492626  
H142     H      0.863120000000     0.065160000000     0.441780000000     0.0382672  
H143     H      0.633570000000     0.942760000000     0.520200000000     0.0366865  
H144     H      0.814550000000     0.953830000000     0.514350000000     0.0526967  
H145     H      0.693690000000     0.075130000000     0.514290000000     0.0534766  
H146     H      0.858370000000     0.997130000000     0.571850000000     0.037354   
H147     H      0.812390000000     0.000000000000     0.435040000000     0.0560221  
H148     H      0.690820000000     0.991280000000     0.557070000000     0.0516985  
H149     H      0.633440000000     0.077190000000     0.460480000000     0.0363609  
H150     H      0.827840000000     0.091390000000     0.484130000000     0.0283632  
H151     H      0.048290000000     0.819960000000     0.424800000000     0.0460326  
H152     H      0.991140000000     0.701210000000     0.552810000000     0.032099   
H153     H      0.934700000000     0.858150000000     0.503660000000     0.0268403  
H154     H      0.971790000000     0.799870000000     0.551140000000     0.0466916  
H155     H      0.939300000000     0.750020000000     0.507510000000     0.0453198  
H156     H      0.075700000000     0.751110000000     0.446900000000     0.0499073  
H157     H      0.033510000000     0.904100000000     0.430250000000     0.0372527  
H158     H      0.948910000000     0.667030000000     0.525120000000     0.0371513  
H159     H      0.022670000000     0.832360000000     0.553240000000     0.0584393  
H160     H      0.031270000000     0.718910000000     0.420020000000     0.0517834  
H161     H      0.957480000000     0.884330000000     0.553860000000     0.0365981  
H162     H      0.071410000000     0.844680000000     0.476140000000     0.0556741  
H163     H      0.950440000000     0.717000000000     0.458190000000     0.0542532  
H164     H      0.079800000000     0.665480000000     0.460340000000     0.034589   
H165     H      0.982650000000     0.870000000000     0.425710000000     0.0307697  
H166     H      0.086360000000     0.306090000000     0.521350000000     0.0502144  
H167     H      0.024570000000     0.186990000000     0.605540000000     0.0358653  
H168     H      0.950160000000     0.351860000000     0.504520000000     0.0320922  
H169     H      0.950300000000     0.319290000000     0.581380000000     0.0449386  
H170     H      0.970830000000     0.249170000000     0.606200000000     0.0460546  
H171     H      0.050160000000     0.256140000000     0.480310000000     0.0504655  
H172     H      0.076700000000     0.384160000000     0.486380000000     0.0401241  
H173     H      0.968440000000     0.163430000000     0.598900000000     0.0349534  
H174     H      0.995460000000     0.356690000000     0.599200000000     0.0518369  
H175     H      0.994330000000     0.234070000000     0.477520000000     0.0561136  
H176     H      0.943250000000     0.396300000000     0.546390000000     0.0382602  
H177     H      0.074990000000     0.349150000000     0.562310000000     0.0553211  
H178     H      0.943110000000     0.230020000000     0.554760000000     0.0521864  
H179     H      0.046090000000     0.170730000000     0.475600000000     0.0362434  
H180     H      0.034460000000     0.344700000000     0.466280000000     0.0318052  
N1       N      0.863670000000     0.491400000000     0.003720000000    -0.179186   
N2       N      0.630760000000     0.498650000000     0.024490000000    -0.179162   
N3       N      0.812630000000     0.391310000000     0.952480000000    -0.104661   
N4       N      0.128520000000     0.513310000000     0.983440000000    -0.179513   
N5       N      0.365220000000     0.493640000000     0.004200000000    -0.178398   
N6       N      0.165800000000     0.604270000000     0.908900000000    -0.105871   
N7       N      0.501050000000     0.627760000000     0.006190000000    -0.179272   
N8       N      0.541820000000     0.860430000000     0.011890000000    -0.179231   
N9       N      0.402880000000     0.699390000000     0.024830000000    -0.107989   
N10      N      0.502060000000     0.359000000000     0.019760000000    -0.179453   
N11      N      0.495770000000     0.123940000000     0.988940000000    -0.179465   
N12      N      0.551950000000     0.307400000000     0.119430000000    -0.107349   
N13      N      0.514750000000     0.985520000000     0.863150000000    -0.179237   
N14      N      0.492440000000     0.015220000000     0.627430000000    -0.179293   
N15      N      0.506170000000     0.873890000000     0.811230000000    -0.107861   
N16      N      0.526840000000     0.994010000000     0.129220000000    -0.180102   
N17      N      0.495260000000     0.012410000000     0.361090000000    -0.178933   
N18      N      0.631370000000     0.944740000000     0.170840000000    -0.105151   
N19      N      0.986730000000     0.492960000000     0.863930000000    -0.179055   
N20      N      0.019760000000     0.534430000000     0.634600000000    -0.178735   
N21      N      0.876480000000     0.491650000000     0.810270000000    -0.106115   
N22      N      0.009030000000     0.519150000000     0.368630000000    -0.179144   
N23      N      0.998740000000     0.513560000000     0.129350000000    -0.178701   
N24      N      0.999810000000     0.399760000000     0.338780000000    -0.108011   
N25      N      0.362820000000     0.016160000000     0.498810000000    -0.17968    
N26      N      0.130740000000     0.031540000000     0.526240000000    -0.17828    
N27      N      0.296650000000     0.931150000000     0.438650000000    -0.107345   
N28      N      0.628950000000     0.008140000000     0.486300000000    -0.179513   
N29      N      0.864910000000     0.034360000000     0.508500000000    -0.17884    
N30      N      0.664760000000     0.017040000000     0.369550000000    -0.10897    
N31      N      0.017120000000     0.662490000000     0.497580000000    -0.179268   
N32      N      0.993140000000     0.898450000000     0.491120000000    -0.179057   
N33      N      0.110410000000     0.714390000000     0.558320000000    -0.105933   
N34      N      0.010580000000     0.162300000000     0.539250000000    -0.179939   
N35      N      0.008570000000     0.393820000000     0.512560000000    -0.178055   
N36      N      0.129320000000     0.191190000000     0.549360000000    -0.109907   
Ni1      Ni     0.994930000000     0.023170000000     0.555470000000     1.00284    
Ni2      Ni     0.001280000000     0.038230000000     0.476070000000     0.999468   
Ni3      Ni     0.053940000000     0.526540000000     0.499700000000     1.00107    
Ni4      Ni     0.973140000000     0.529340000000     0.503660000000     0.99868    
Ni5      Ni     0.494430000000     0.972090000000     0.495060000000     1.0043     
Ni6      Ni     0.497510000000     0.053860000000     0.493500000000     1.00116    
Ni7      Ni     0.479650000000     0.984440000000     0.998870000000     1.0023     
Ni8      Ni     0.559280000000     0.998860000000     0.993880000000     1.00465    
Ni9      Ni     0.999700000000     0.462030000000     0.999370000000     0.995536   
Ni10     Ni     0.992770000000     0.543390000000     0.993600000000     1.0073     
Ni11     Ni     0.494810000000     0.495330000000     0.053700000000     1.00264    
Ni12     Ni     0.501670000000     0.491460000000     0.973180000000     0.998162   
O1       O      0.992160000000     0.959050000000     0.540850000000    -0.450428   
O2       O      0.997370000000     0.088770000000     0.564560000000    -0.447193   
O3       O      0.930680000000     0.026180000000     0.548940000000    -0.45627    
O4       O      0.060060000000     0.020400000000     0.557030000000    -0.451791   
O5       O      0.065950000000     0.036430000000     0.483240000000    -0.45002    
O6       O      0.935540000000     0.040390000000     0.474760000000    -0.446235   
O7       O      0.003730000000     0.101960000000     0.490240000000    -0.454504   
O8       O      0.000200000000     0.972940000000     0.466840000000    -0.450767   
O9       O      0.054140000000     0.527610000000     0.564950000000    -0.450155   
O10      O      0.048670000000     0.525610000000     0.435120000000    -0.45304    
O11      O      0.053410000000     0.592590000000     0.497680000000    -0.445595   
O12      O      0.048700000000     0.460680000000     0.501370000000    -0.447958   
O13      O      0.973640000000     0.464040000000     0.510200000000    -0.452366   
O14      O      0.977730000000     0.594650000000     0.498400000000    -0.452787   
O15      O      0.973110000000     0.522560000000     0.438270000000    -0.44571    
O16      O      0.978950000000     0.535620000000     0.568230000000    -0.450754   
O17      O      0.493390000000     0.974230000000     0.429570000000    -0.447508   
O18      O      0.494260000000     0.975640000000     0.560080000000    -0.451084   
O19      O      0.429870000000     0.976640000000     0.496320000000    -0.453298   
O20      O      0.559730000000     0.972690000000     0.494460000000    -0.450719   
O21      O      0.562420000000     0.049010000000     0.490940000000    -0.450731   
O22      O      0.431980000000     0.053040000000     0.494770000000    -0.449172   
O23      O      0.499180000000     0.051920000000     0.558750000000    -0.452034   
O24      O      0.496380000000     0.050610000000     0.428870000000    -0.454702   
O25      O      0.470820000000     0.049670000000     0.995870000000    -0.452343   
O26      O      0.493390000000     0.920760000000     0.003390000000    -0.454071   
O27      O      0.485370000000     0.987930000000     0.063550000000    -0.452177   
O28      O      0.479760000000     0.980600000000     0.933250000000    -0.446721   
O29      O      0.553970000000     0.994950000000     0.929550000000    -0.455566   
O30      O      0.559530000000     0.002610000000     0.059000000000    -0.449829   
O31      O      0.567910000000     0.933240000000     0.997300000000    -0.445968   
O32      O      0.545130000000     0.063000000000     0.990040000000    -0.451022   
O33      O      0.996340000000     0.459830000000     0.934130000000    -0.446822   
O34      O      0.002040000000     0.469830000000     0.064330000000    -0.447191   
O35      O      0.934780000000     0.459320000000     0.003740000000    -0.448207   
O36      O      0.064250000000     0.469950000000     0.994150000000    -0.450263   
O37      O      0.057860000000     0.546020000000     0.989820000000    -0.448853   
O38      O      0.928170000000     0.535230000000     0.997350000000    -0.451616   
O39      O      0.997130000000     0.545920000000     0.058460000000    -0.453256   
O40      O      0.988430000000     0.535720000000     0.929190000000    -0.452383   
O41      O      0.492380000000     0.429320000000     0.053870000000    -0.447025   
O42      O      0.497130000000     0.561000000000     0.047720000000    -0.44995    
O43      O      0.430550000000     0.497970000000     0.045950000000    -0.453839   
O44      O      0.559940000000     0.492740000000     0.056380000000    -0.450644   
O45      O      0.566190000000     0.495950000000     0.980990000000    -0.449959   
O46      O      0.436080000000     0.487710000000     0.971170000000    -0.445855   
O47      O      0.499060000000     0.557020000000     0.972180000000    -0.452003   
O48      O      0.505360000000     0.426170000000     0.979390000000    -0.453056   


