data_structure

_audit_creation_method RASPA-1.0
_audit_creation_date 2023-5-25
_audit_author_name 'Poobodin Mano'

_cell_length_a    29.5794
_cell_length_b    28.9738
_cell_length_c    29.3763
_cell_angle_alpha 89.997
_cell_angle_beta  89.997
_cell_angle_gamma 89.997
_cell_volume      25176.3

_symmetry_cell_setting          triclinic
_symmetry_space_group_name_Hall 'P 1'
_symmetry_space_group_name_H-M  'P 1'
_symmetry_Int_Tables_number     1

_symmetry_equiv_pos_as_xyz 'x,y,z'

loop_
_atom_site_label
_atom_site_type_symbol
_atom_site_fract_x
_atom_site_fract_y
_atom_site_fract_z
_atom_site_charge
C1       C      0.004700000000     0.918920000000     0.501140000000     0.429367   
C2       C      0.982560000000     0.092660000000     0.521330000000     0.429868   
C3       C      0.907180000000     0.994780000000     0.510750000000     0.429794   
C4       C      0.078640000000     0.015130000000     0.510060000000     0.431145   
C5       C      0.032830000000     0.519810000000     0.584020000000     0.430054   
C6       C      0.040210000000     0.503870000000     0.411280000000     0.431568   
C7       C      0.048410000000     0.597620000000     0.487930000000     0.431785   
C8       C      0.023680000000     0.424010000000     0.505240000000     0.428114   
C9       C      0.490540000000     0.008760000000     0.432800000000     0.428039   
C10      C      0.491020000000     0.021930000000     0.606150000000     0.430078   
C11      C      0.405470000000     0.020500000000     0.519510000000     0.42933    
C12      C      0.577800000000     0.011780000000     0.520680000000     0.431595   
C13      C      0.462560000000     0.110620000000     0.028450000000     0.434596   
C14      C      0.469600000000     0.936880000000     0.003920000000     0.431814   
C15      C      0.473760000000     0.012720000000     0.102720000000     0.429979   
C16      C      0.458940000000     0.036830000000     0.931430000000     0.431817   
C17      C      0.008390000000     0.501620000000     0.914330000000     0.432288   
C18      C      0.012310000000     0.493120000000     0.087660000000     0.432727   
C19      C      0.924310000000     0.500210000000     0.002250000000     0.432252   
C20      C      0.096710000000     0.495900000000     0.000730000000     0.430855   
C21      C      0.506550000000     0.430630000000     0.982340000000     0.432762   
C22      C      0.514260000000     0.606020000000     0.993060000000     0.431187   
C23      C      0.423640000000     0.522540000000     0.987370000000     0.429742   
C24      C      0.595920000000     0.512380000000     0.986160000000     0.429773   
C25      C      0.666950000000     0.517730000000     0.943150000000     0.0152422  
C26      C      0.850900000000     0.465180000000     0.023140000000     0.0153448  
C27      C      0.855560000000     0.545450000000     0.987890000000     0.0602188  
C28      C      0.806690000000     0.456490000000     0.997290000000    -0.105024   
C29      C      0.712770000000     0.538850000000     0.954870000000    -0.102138   
C30      C      0.813600000000     0.535180000000     0.959030000000    -0.118027   
C31      C      0.738070000000     0.507360000000     0.987090000000     0.0167996  
C32      C      0.783610000000     0.501140000000     0.983650000000     0.0248855  
C33      C      0.664310000000     0.477290000000     0.019330000000     0.0130939  
C34      C      0.712390000000     0.493920000000     0.029800000000    -0.101032   
C35      C      0.352270000000     0.513960000000     0.944810000000     0.0140281  
C36      C      0.167300000000     0.528880000000     0.031160000000     0.016053   
C37      C      0.168000000000     0.455040000000     0.984350000000     0.0594306  
C38      C      0.211440000000     0.544270000000     0.008850000000    -0.105069   
C39      C      0.312440000000     0.481840000000     0.955030000000    -0.101604   
C40      C      0.211520000000     0.471010000000     0.960360000000    -0.116947   
C41      C      0.284020000000     0.502580000000     0.992620000000     0.0161712  
C42      C      0.238030000000     0.503630000000     0.990530000000     0.024201   
C43      C      0.351920000000     0.543210000000     0.025820000000     0.013312   
C44      C      0.309610000000     0.514490000000     0.035860000000    -0.100932   
C45      C      0.532750000000     0.682210000000     0.959170000000     0.0136801  
C46      C      0.434510000000     0.860220000000     0.012460000000     0.0166884  
C47      C      0.504910000000     0.870870000000     0.964180000000     0.0579289  
C48      C      0.454310000000     0.816390000000     0.033510000000    -0.105345   
C49      C      0.501410000000     0.723570000000     0.951490000000    -0.101262   
C50      C      0.523390000000     0.824640000000     0.981660000000    -0.115696   
C51      C      0.488860000000     0.746820000000     0.996110000000     0.0163584  
C52      C      0.486450000000     0.793580000000     0.000310000000     0.0237213  
C53      C      0.506090000000     0.675960000000     0.040380000000     0.0143241  
C54      C      0.471760000000     0.714720000000     0.032980000000    -0.101782   
C55      C      0.529700000000     0.356880000000     0.016630000000     0.0169944  
C56      C      0.421310000000     0.183450000000     0.015200000000     0.0163233  
C57      C      0.498550000000     0.183560000000     0.052900000000     0.0592204  
C58      C      0.436860000000     0.220140000000     0.980870000000    -0.106306   
C59      C      0.495540000000     0.324410000000     0.038090000000    -0.102361   
C60      C      0.514020000000     0.221770000000     0.020510000000    -0.116328   
C61      C      0.473510000000     0.295720000000     0.001190000000     0.0166931  
C62      C      0.474170000000     0.248820000000     0.001870000000     0.0251444  
C63      C      0.485500000000     0.358020000000     0.943240000000     0.0132313  
C64      C      0.451390000000     0.323060000000     0.963030000000    -0.101554   
C65      C      0.507540000000     0.065100000000     0.677330000000     0.0130434  
C66      C      0.414300000000     0.030490000000     0.860760000000     0.0172454  
C67      C      0.487490000000     0.075830000000     0.862230000000     0.058678   
C68      C      0.427910000000     0.007560000000     0.815930000000    -0.105654   
C69      C      0.474910000000     0.080570000000     0.714890000000    -0.101109   
C70      C      0.500100000000     0.056670000000     0.815180000000    -0.115984   
C71      C      0.458280000000     0.039730000000     0.742650000000     0.016351   
C72      C      0.459470000000     0.038520000000     0.789070000000     0.0241669  
C73      C      0.473830000000     0.985070000000     0.679910000000     0.0140675  
C74      C      0.438510000000     0.000770000000     0.714690000000    -0.102135   
C75      C      0.461350000000     0.039800000000     0.360590000000     0.0133721  
C76      C      0.520360000000     0.992660000000     0.169330000000     0.0163065  
C77      C      0.445430000000     0.035470000000     0.178120000000     0.0560838  
C78      C      0.511690000000     0.967030000000     0.214230000000    -0.106179   
C79      C      0.482250000000     0.048700000000     0.313880000000    -0.101599   
C80      C      0.438710000000     0.012170000000     0.224490000000    -0.115937   
C81      C      0.493220000000     0.003830000000     0.289860000000     0.0165553  
C82      C      0.483080000000     0.996760000000     0.245120000000     0.024719   
C83      C      0.499160000000     0.961410000000     0.363470000000     0.0137702  
C84      C      0.521800000000     0.970600000000     0.317260000000    -0.101835   
C85      C      0.996200000000     0.551730000000     0.653180000000     0.0127204  
C86      C      0.014610000000     0.461210000000     0.841050000000     0.0175252  
C87      C      0.985740000000     0.543650000000     0.844700000000     0.0571851  
C88      C      0.042700000000     0.472650000000     0.799010000000    -0.105598   
C89      C      0.980920000000     0.529260000000     0.697990000000    -0.100959   
C90      C      0.008670000000     0.553800000000     0.798700000000    -0.115281   
C91      C      0.020330000000     0.510470000000     0.725570000000     0.0163868  
C92      C      0.019770000000     0.510380000000     0.771980000000     0.0235386  
C93      C      0.070560000000     0.509460000000     0.658020000000     0.0149652  
C94      C      0.054090000000     0.481930000000     0.699060000000    -0.101932   
C95      C      0.082600000000     0.483890000000     0.341730000000     0.0144342  
C96      C      0.997360000000     0.528390000000     0.162840000000     0.0160159  
C97      C      0.031950000000     0.448050000000     0.156170000000     0.0583744  
C98      C      0.031230000000     0.540170000000     0.200190000000    -0.105039   
C99      C      0.068430000000     0.458440000000     0.298190000000    -0.102581   
C100     C      0.065880000000     0.460010000000     0.194200000000    -0.116982   
C101     C      0.038460000000     0.489490000000     0.269810000000     0.0181334  
C102     C      0.045920000000     0.496780000000     0.224700000000     0.024308   
C103     C      0.011790000000     0.532890000000     0.338050000000     0.0140998  
C104     C      0.997580000000     0.508610000000     0.294360000000    -0.101893   
C105     C      0.336990000000     0.067280000000     0.507800000000     0.0144615  
C106     C      0.151410000000     0.990780000000     0.542820000000     0.0161684  
C107     C      0.147970000000     0.036500000000     0.468650000000     0.0589425  
C108     C      0.195160000000     0.015570000000     0.555470000000    -0.105817   
C109     C      0.293930000000     0.058090000000     0.480370000000    -0.102323   
C110     C      0.191460000000     0.062210000000     0.482170000000    -0.117413   
C111     C      0.264480000000     0.024550000000     0.506260000000     0.0167438  
C112     C      0.219630000000     0.032320000000     0.513420000000     0.0247003  
C113     C      0.332140000000     0.987770000000     0.543370000000     0.0134242  
C114     C      0.287300000000     0.979440000000     0.518750000000    -0.101189   
C115     C      0.836970000000     0.965580000000     0.547250000000     0.0128141  
C116     C      0.650690000000     0.050420000000     0.507650000000     0.0169213  
C117     C      0.646870000000     0.974310000000     0.550390000000     0.0568102  
C118     C      0.693470000000     0.034650000000     0.483080000000    -0.105503   
C119     C      0.791580000000     0.989150000000     0.557660000000    -0.100687   
C120     C      0.692780000000     0.960430000000     0.529880000000    -0.11527    
C121     C      0.765850000000     0.002340000000     0.514730000000     0.0162152  
C122     C      0.719730000000     0.001550000000     0.512880000000     0.0235303  
C123     C      0.835610000000     0.998350000000     0.467880000000     0.015197   
C124     C      0.793590000000     0.026790000000     0.478780000000    -0.102007   
C125     C      0.001800000000     0.847580000000     0.454420000000     0.0134212  
C126     C      0.096430000000     0.667000000000     0.493820000000     0.0170825  
C127     C      0.023920000000     0.667980000000     0.447850000000     0.0582358  
C128     C      0.085060000000     0.714340000000     0.514090000000    -0.10536    
C129     C      0.040830000000     0.816470000000     0.439170000000    -0.101309   
C130     C      0.013630000000     0.717040000000     0.464500000000    -0.115485   
C131     C      0.058900000000     0.788700000000     0.478940000000     0.016161   
C132     C      0.055340000000     0.741870000000     0.481970000000     0.0245083  
C133     C      0.032760000000     0.846260000000     0.534860000000     0.0132651  
C134     C      0.073620000000     0.817880000000     0.518960000000    -0.101788   
C135     C      0.053640000000     0.347220000000     0.525300000000     0.0139725  
C136     C      0.954100000000     0.167590000000     0.492610000000     0.0158639  
C137     C      0.991480000000     0.161580000000     0.570050000000     0.0585505  
C138     C      0.979820000000     0.212310000000     0.482750000000    -0.104292   
C139     C      0.034480000000     0.308000000000     0.554600000000    -0.101989   
C140     C      0.019030000000     0.205570000000     0.560270000000    -0.115959   
C141     C      0.997630000000     0.283260000000     0.528520000000     0.0167093  
C142     C      0.995170000000     0.236270000000     0.526040000000     0.0231893  
C143     C      0.978460000000     0.355460000000     0.484830000000     0.0127222  
C144     C      0.959920000000     0.314320000000     0.511680000000    -0.101183   
H1       H      0.731090000000     0.543430000000     0.922150000000     0.0438139  
H2       H      0.842280000000     0.475470000000     0.058550000000     0.0276128  
H3       H      0.666490000000     0.441440000000     0.005970000000     0.0266656  
H4       H      0.729680000000     0.467320000000     0.050490000000     0.0432061  
H5       H      0.784960000000     0.433100000000     0.017530000000     0.0443863  
H6       H      0.796550000000     0.568590000000     0.951990000000     0.0500327  
H7       H      0.648220000000     0.542660000000     0.921360000000     0.0350508  
H8       H      0.870040000000     0.432240000000     0.025480000000     0.0365611  
H9       H      0.710020000000     0.525130000000     0.051690000000     0.0514152  
H10      H      0.824080000000     0.520120000000     0.925850000000     0.0554675  
H11      H      0.644790000000     0.475710000000     0.051640000000     0.0356621  
H12      H      0.708040000000     0.573230000000     0.970990000000     0.0515813  
H13      H      0.814900000000     0.437400000000     0.965530000000     0.0527031  
H14      H      0.878280000000     0.566920000000     0.966350000000     0.030446   
H15      H      0.672360000000     0.485680000000     0.923000000000     0.0300344  
H16      H      0.807420000000     0.559090000000     0.061300000000     0.0338794  
H17      H      0.293140000000     0.477740000000     0.922840000000     0.0428686  
H18      H      0.175550000000     0.512860000000     0.064540000000     0.0262506  
H19      H      0.340930000000     0.578860000000     0.017200000000     0.0259572  
H20      H      0.288810000000     0.532470000000     0.061710000000     0.0426963  
H21      H      0.230580000000     0.565880000000     0.033230000000     0.0439892  
H22      H      0.231420000000     0.439790000000     0.951220000000     0.0489294  
H23      H      0.373880000000     0.497180000000     0.918620000000     0.035346   
H24      H      0.146450000000     0.559920000000     0.038540000000     0.0354025  
H25      H      0.320430000000     0.481520000000     0.051870000000     0.051472   
H26      H      0.202600000000     0.489200000000     0.928260000000     0.0527409  
H27      H      0.372870000000     0.545490000000     0.057160000000     0.0351417  
H28      H      0.325070000000     0.447390000000     0.965800000000     0.0503497  
H29      H      0.203060000000     0.567110000000     0.979640000000     0.0527492  
H30      H      0.147370000000     0.436350000000     0.958580000000     0.0276043  
H31      H      0.339080000000     0.546720000000     0.930180000000     0.0289778  
H32      H      0.213980000000     0.431290000000     0.056560000000     0.0332762  
H33      H      0.516920000000     0.747060000000     0.926210000000     0.0440077  
H34      H      0.412010000000     0.850470000000     0.983690000000     0.029594   
H35      H      0.537760000000     0.691050000000     0.054410000000     0.0285687  
H36      H      0.467550000000     0.732530000000     0.066200000000     0.0429497  
H37      H      0.425320000000     0.793590000000     0.042060000000     0.0439026  
H38      H      0.544640000000     0.808360000000     0.955100000000     0.0493301  
H39      H      0.536320000000     0.662720000000     0.926780000000     0.0358856  
H40      H      0.413290000000     0.877560000000     0.038640000000     0.0352147  
H41      H      0.438610000000     0.699990000000     0.022650000000     0.0507488  
H42      H      0.546850000000     0.832100000000     0.010310000000     0.0545549  
H43      H      0.492150000000     0.651830000000     0.066250000000     0.0360648  
H44      H      0.469660000000     0.710820000000     0.935630000000     0.0521977  
H45      H      0.472690000000     0.825030000000     0.065410000000     0.0510244  
H46      H      0.534240000000     0.894440000000     0.959770000000     0.0306822  
H47      H      0.566780000000     0.695640000000     0.968310000000     0.0266946  
H48      H      0.453920000000     0.824950000000     0.907710000000     0.0337752  
H49      H      0.511570000000     0.304090000000     0.065640000000     0.0452743  
H50      H      0.403820000000     0.200920000000     0.043920000000     0.0296236  
H51      H      0.511690000000     0.338720000000     0.923840000000     0.0291633  
H52      H      0.439860000000     0.300680000000     0.934630000000     0.0434409  
H53      H      0.406830000000     0.241270000000     0.971850000000     0.0447256  
H54      H      0.540640000000     0.243130000000     0.036660000000     0.0495442  
H55      H      0.545000000000     0.379070000000     0.043410000000     0.0339322  
H56      H      0.396170000000     0.160750000000     0.998140000000     0.0368618  
H57      H      0.421570000000     0.341770000000     0.976790000000     0.0498806  
H58      H      0.530970000000     0.205100000000     0.991000000000     0.056923   
H59      H      0.467570000000     0.381370000000     0.919210000000     0.0337819  
H60      H      0.468830000000     0.345350000000     0.054890000000     0.0554269  
H61      H      0.449660000000     0.203160000000     0.949490000000     0.054504   
H62      H      0.528230000000     0.161100000000     0.059850000000     0.030963   
H63      H      0.557390000000     0.335880000000     0.001510000000     0.0253921  
H64      H      0.453110000000     0.243610000000     0.101080000000     0.0343733  
H65      H      0.490580000000     0.108310000000     0.735440000000     0.0437615  
H66      H      0.392530000000     0.060830000000     0.853240000000     0.0290737  
H67      H      0.503110000000     0.969880000000     0.698380000000     0.0298126  
H68      H      0.429360000000     0.970060000000     0.735290000000     0.0434453  
H69      H      0.396100000000     0.000790000000     0.796930000000     0.0441478  
H70      H      0.520220000000     0.082690000000     0.796450000000     0.0496659  
H71      H      0.514520000000     0.094720000000     0.654340000000     0.0365912  
H72      H      0.393710000000     0.005450000000     0.880620000000     0.0358637  
H73      H      0.407630000000     0.013050000000     0.696840000000     0.0507075  
H74      H      0.523320000000     0.026960000000     0.820410000000     0.0558158  
H75      H      0.458520000000     0.957380000000     0.658730000000     0.036689   
H76      H      0.444960000000     0.096630000000     0.698400000000     0.0516952  
H77      H      0.444950000000     0.974090000000     0.822920000000     0.0532054  
H78      H      0.519410000000     0.079480000000     0.881880000000     0.0304671  
H79      H      0.540080000000     0.055230000000     0.693620000000     0.0281615  
H80      H      0.434930000000     0.134860000000     0.821160000000     0.0338602  
H81      H      0.459960000000     0.071990000000     0.294140000000     0.0450033  
H82      H      0.543470000000     0.022190000000     0.175960000000     0.0307005  
H83      H      0.467840000000     0.940940000000     0.357800000000     0.0300744  
H84      H      0.525630000000     0.936710000000     0.300020000000     0.0430737  
H85      H      0.545210000000     0.959090000000     0.229330000000     0.0440911  
H86      H      0.418040000000     0.034340000000     0.247150000000     0.0495237  
H87      H      0.458640000000     0.073150000000     0.379110000000     0.0361051  
H88      H      0.538070000000     0.968740000000     0.145660000000     0.0339127  
H89      H      0.555970000000     0.985630000000     0.322560000000     0.0502234  
H90      H      0.417940000000     0.980650000000     0.219080000000     0.0540407  
H91      H      0.522490000000     0.940200000000     0.384570000000     0.0345324  
H92      H      0.514440000000     0.067880000000     0.318760000000     0.0521293  
H93      H      0.493870000000     0.933970000000     0.207390000000     0.0505636  
H94      H      0.411660000000     0.037570000000     0.161620000000     0.0314637  
H95      H      0.426350000000     0.026770000000     0.355460000000     0.0267241  
H96      H      0.502760000000     0.094670000000     0.211590000000     0.0344158  
H97      H      0.959760000000     0.554230000000     0.716960000000     0.0437626  
H98      H      0.981940000000     0.445730000000     0.830160000000     0.0299881  
H99      H      0.089430000000     0.540310000000     0.670190000000     0.0284982  
H100     H      0.084480000000     0.473360000000     0.719630000000     0.0428666  
H101     H      0.045820000000     0.440200000000     0.779070000000     0.0439143  
H102     H      0.988330000000     0.579220000000     0.779370000000     0.0490643  
H103     H      0.966240000000     0.557070000000     0.630960000000     0.0360381  
H104     H      0.033200000000     0.434710000000     0.861080000000     0.0348282  
H105     H      0.037960000000     0.449260000000     0.687650000000     0.0509289  
H106     H      0.041310000000     0.571400000000     0.805840000000     0.0538519  
H107     H      0.094510000000     0.487400000000     0.638570000000     0.0357044  
H108     H      0.958480000000     0.499690000000     0.689590000000     0.0513993  
H109     H      0.077070000000     0.484140000000     0.809320000000     0.0510363  
H110     H      0.988820000000     0.575260000000     0.865950000000     0.030114   
H111     H      0.010130000000     0.586410000000     0.661280000000     0.0268077  
H112     H      0.919500000000     0.504860000000     0.800640000000     0.0338709  
H113     H      0.099970000000     0.448660000000     0.280110000000     0.0436955  
H114     H      0.965220000000     0.517370000000     0.179180000000     0.0270163  
H115     H      0.029430000000     0.565460000000     0.328750000000     0.0287377  
H116     H      0.976570000000     0.532130000000     0.273460000000     0.0438777  
H117     H      0.017470000000     0.567160000000     0.223080000000     0.0449336  
H118     H      0.074740000000     0.427720000000     0.212480000000     0.0495809  
H119     H      0.101030000000     0.459260000000     0.364100000000     0.0345702  
H120     H      0.989790000000     0.560100000000     0.142970000000     0.0366175  
H121     H      0.975280000000     0.479130000000     0.303440000000     0.0522313  
H122     H      0.097460000000     0.473610000000     0.178680000000     0.0532855  
H123     H      0.980960000000     0.542650000000     0.357460000000     0.0368017  
H124     H      0.049660000000     0.426450000000     0.307080000000     0.0510759  
H125     H      0.061580000000     0.555750000000     0.183990000000     0.053098   
H126     H      0.050290000000     0.425770000000     0.131470000000     0.030744   
H127     H      0.106350000000     0.512170000000     0.332510000000     0.0303468  
H128     H      0.966210000000     0.435740000000     0.214450000000     0.0338258  
H129     H      0.277260000000     0.092010000000     0.475100000000     0.0431813  
H130     H      0.160230000000     0.956550000000     0.528180000000     0.0258051  
H131     H      0.324500000000     0.999520000000     0.578580000000     0.0259631  
H132     H      0.265880000000     0.955990000000     0.539290000000     0.042686   
H133     H      0.215910000000     0.993190000000     0.577790000000     0.0440189  
H134     H      0.209480000000     0.071890000000     0.450400000000     0.0492633  
H135     H      0.359440000000     0.089810000000     0.487060000000     0.0348986  
H136     H      0.131930000000     0.984070000000     0.574500000000     0.0353756  
H137     H      0.294500000000     0.960610000000     0.486590000000     0.0513923  
H138     H      0.182500000000     0.094630000000     0.500300000000     0.0526215  
H139     H      0.350610000000     0.954470000000     0.546220000000     0.035353   
H140     H      0.302670000000     0.043310000000     0.446580000000     0.050845   
H141     H      0.186400000000     0.046290000000     0.576360000000     0.0520572  
H142     H      0.125820000000     0.061870000000     0.450980000000     0.0280152  
H143     H      0.327950000000     0.086490000000     0.539320000000     0.0293313  
H144     H      0.192620000000     0.962480000000     0.445180000000     0.0333074  
H145     H      0.772100000000     0.966840000000     0.581110000000     0.0441371  
H146     H      0.660360000000     0.071930000000     0.537460000000     0.0299915  
H147     H      0.825000000000     0.965100000000     0.452190000000     0.0284476  
H148     H      0.774770000000     0.030810000000     0.446290000000     0.0431044  
H149     H      0.713120000000     0.066360000000     0.475270000000     0.0440399  
H150     H      0.711360000000     0.938220000000     0.554190000000     0.04922    
H151     H      0.857450000000     0.964110000000     0.578950000000     0.0367679  
H152     H      0.631140000000     0.072720000000     0.483910000000     0.0351584  
H153     H      0.803520000000     0.061560000000     0.491290000000     0.051467   
H154     H      0.686060000000     0.938050000000     0.499880000000     0.0537788  
H155     H      0.855740000000     0.017620000000     0.442180000000     0.036387   
H156     H      0.798610000000     0.021500000000     0.576730000000     0.0519525  
H157     H      0.684440000000     0.017380000000     0.450530000000     0.0510524  
H158     H      0.625890000000     0.942540000000     0.552470000000     0.0306581  
H159     H      0.829890000000     0.929390000000     0.536870000000     0.0272941  
H160     H      0.689520000000     0.024800000000     0.609830000000     0.0339009  
H161     H      0.030710000000     0.794880000000     0.409710000000     0.0439403  
H162     H      0.119260000000     0.671840000000     0.464120000000     0.0299383  
H163     H      0.006500000000     0.822350000000     0.548260000000     0.0292279  
H164     H      0.086160000000     0.797540000000     0.548340000000     0.0426983  
H165     H      0.117690000000     0.732310000000     0.520330000000     0.0438331  
H166     H      0.995180000000     0.736020000000     0.437540000000     0.0494541  
H167     H      0.992480000000     0.871150000000     0.426080000000     0.0361636  
H168     H      0.115060000000     0.646540000000     0.519820000000     0.0333687  
H169     H      0.101220000000     0.841510000000     0.508130000000     0.0506781  
H170     H      0.989620000000     0.714420000000     0.493510000000     0.0551771  
H171     H      0.043870000000     0.868810000000     0.563370000000     0.0359215  
H172     H      0.068620000000     0.838900000000     0.426520000000     0.0526864  
H173     H      0.067300000000     0.709820000000     0.547140000000     0.0511447  
H174     H      0.991020000000     0.649720000000     0.444510000000     0.0295804  
H175     H      0.971970000000     0.825360000000     0.461470000000     0.0263973  
H176     H      0.079860000000     0.703650000000     0.389000000000     0.0343018  
H177     H      0.063170000000     0.284900000000     0.563280000000     0.0430055  
H178     H      0.919990000000     0.176890000000     0.505570000000     0.0269377  
H179     H      0.989990000000     0.342730000000     0.451050000000     0.0270272  
H180     H      0.934110000000     0.296250000000     0.491010000000     0.0430264  
H181     H      0.958720000000     0.234250000000     0.460380000000     0.0440684  
H182     H      0.024660000000     0.223670000000     0.593170000000     0.0489318  
H183     H      0.078510000000     0.366820000000     0.546130000000     0.0345232  
H184     H      0.948900000000     0.148640000000     0.460140000000     0.0354327  
H185     H      0.941720000000     0.327790000000     0.542000000000     0.0515785  
H186     H      0.052630000000     0.195770000000     0.546320000000     0.0529325  
H187     H      0.950520000000     0.380320000000     0.478530000000     0.0361699  
H188     H      0.020330000000     0.322210000000     0.586720000000     0.0504425  
H189     H      0.010530000000     0.203560000000     0.462720000000     0.0532066  
H190     H      0.013540000000     0.138450000000     0.590560000000     0.0291162  
H191     H      0.072060000000     0.332030000000     0.495860000000     0.0297087  
H192     H      0.920910000000     0.212580000000     0.588270000000     0.0336791  
N1       N      0.878150000000     0.502340000000     0.002280000000    -0.183346   
N2       N      0.641680000000     0.506230000000     0.984820000000    -0.179397   
N3       N      0.142830000000     0.494720000000     0.003070000000    -0.183668   
N4       N      0.377480000000     0.524400000000     0.986890000000    -0.179447   
N5       N      0.470840000000     0.890520000000     0.995490000000    -0.183405   
N6       N      0.516300000000     0.652990000000     0.996800000000    -0.179623   
N7       N      0.460580000000     0.157460000000     0.032800000000    -0.183411   
N8       N      0.507570000000     0.383720000000     0.980350000000    -0.180842   
N9       N      0.454680000000     0.045770000000     0.885940000000    -0.183238   
N10      N      0.489630000000     0.024700000000     0.652600000000    -0.178935   
N11      N      0.478050000000     0.010320000000     0.149030000000    -0.182809   
N12      N      0.487090000000     0.004930000000     0.386550000000    -0.178912   
N13      N      0.005680000000     0.503200000000     0.867910000000    -0.18343    
N14      N      0.031800000000     0.524630000000     0.630310000000    -0.179293   
N15      N      0.014410000000     0.490350000000     0.134020000000    -0.183678   
N16      N      0.043030000000     0.503960000000     0.364950000000    -0.179695   
N17      N      0.124790000000     0.016920000000     0.508850000000    -0.183939   
N18      N      0.359400000000     0.023660000000     0.520600000000    -0.179545   
N19      N      0.623960000000     0.010550000000     0.523440000000    -0.183242   
N20      N      0.861300000000     0.988690000000     0.509790000000    -0.178947   
N21      N      0.054960000000     0.643370000000     0.478950000000    -0.183575   
N22      N      0.013580000000     0.872860000000     0.496450000000    -0.178981   
N23      N      0.977350000000     0.139210000000     0.527210000000    -0.182914   
N24      N      0.017240000000     0.377330000000     0.508030000000    -0.178669   
Ni1      Ni     0.993930000000     0.000650000000     0.551100000000     0.995526   
Ni2      Ni     0.991890000000     0.010710000000     0.470700000000     0.998436   
Ni3      Ni     0.075890000000     0.504990000000     0.500220000000     1.00174    
Ni4      Ni     0.996380000000     0.517010000000     0.495010000000     0.994403   
Ni5      Ni     0.489660000000     0.974800000000     0.522800000000     0.994678   
Ni6      Ni     0.493530000000     0.056530000000     0.516150000000     0.998498   
Ni7      Ni     0.426400000000     0.021610000000     0.020030000000     0.998846   
Ni8      Ni     0.506170000000     0.025840000000     0.013760000000     0.993905   
Ni9      Ni     0.009820000000     0.456720000000     0.999120000000     1.00069    
Ni10     Ni     0.011140000000     0.538720000000     0.002990000000     1.00071    
Ni11     Ni     0.510080000000     0.515720000000     0.027700000000     1.00244    
Ni12     Ni     0.509640000000     0.520800000000     0.946750000000     0.99771    
O1       O      0.001930000000     0.936250000000     0.541110000000    -0.454515   
O2       O      0.987200000000     0.066360000000     0.556170000000    -0.449648   
O3       O      0.929070000000     0.992920000000     0.548510000000    -0.446216   
O4       O      0.058240000000     0.007550000000     0.547830000000    -0.451458   
O5       O      0.056070000000     0.019320000000     0.473020000000    -0.451172   
O6       O      0.928220000000     0.002100000000     0.473380000000    -0.456382   
O7       O      0.982940000000     0.075470000000     0.481100000000    -0.449737   
O8       O      0.000310000000     0.944800000000     0.465880000000    -0.446883   
O9       O      0.070590000000     0.511470000000     0.564420000000    -0.456798   
O10      O      0.076100000000     0.498590000000     0.435220000000    -0.452823   
O11      O      0.082500000000     0.570880000000     0.494180000000    -0.4493     
O12      O      0.063910000000     0.440400000000     0.506610000000    -0.452      
O13      O      0.989680000000     0.451130000000     0.500430000000    -0.449096   
O14      O      0.008190000000     0.581330000000     0.488120000000    -0.453207   
O15      O      0.002010000000     0.511150000000     0.430530000000    -0.452427   
O16      O      0.996460000000     0.523750000000     0.560410000000    -0.447927   
O17      O      0.492260000000     0.972260000000     0.457480000000    -0.450466   
O18      O      0.487110000000     0.982440000000     0.587060000000    -0.454606   
O19      O      0.424880000000     0.980880000000     0.520900000000    -0.448587   
O20      O      0.554620000000     0.974700000000     0.525790000000    -0.44815    
O21      O      0.557830000000     0.050470000000     0.514180000000    -0.454057   
O22      O      0.429100000000     0.057490000000     0.517790000000    -0.455152   
O23      O      0.495790000000     0.058480000000     0.581820000000    -0.447433   
O24      O      0.490370000000     0.048780000000     0.451430000000    -0.450344   
O25      O      0.425990000000     0.087460000000     0.023680000000    -0.45254    
O26      O      0.432230000000     0.955970000000     0.015550000000    -0.452477   
O27      O      0.434590000000     0.018250000000     0.084750000000    -0.44926    
O28      O      0.423970000000     0.025960000000     0.954930000000    -0.450435   
O29      O      0.497700000000     0.040240000000     0.950660000000    -0.450288   
O30      O      0.509150000000     0.011620000000     0.077500000000    -0.449321   
O31      O      0.505500000000     0.961260000000     0.999420000000    -0.450192   
O32      O      0.500990000000     0.090130000000     0.028120000000    -0.450994   
O33      O      0.006910000000     0.462450000000     0.934510000000    -0.454945   
O34      O      0.013810000000     0.456060000000     0.063950000000    -0.45301    
O35      O      0.944790000000     0.461100000000     0.003210000000    -0.447291   
O36      O      0.074510000000     0.458260000000     0.995490000000    -0.449048   
O37      O      0.075820000000     0.534430000000     0.005050000000    -0.453064   
O38      O      0.946950000000     0.537810000000     0.001020000000    -0.454344   
O39      O      0.009400000000     0.532580000000     0.068050000000    -0.450899   
O40      O      0.011520000000     0.539050000000     0.937510000000    -0.449064   
O41      O      0.507700000000     0.450430000000     0.021250000000    -0.457949   
O42      O      0.512980000000     0.581410000000     0.029230000000    -0.456811   
O43      O      0.445110000000     0.519870000000     0.025280000000    -0.449451   
O44      O      0.574850000000     0.511430000000     0.024340000000    -0.449819   
O45      O      0.574080000000     0.517460000000     0.948820000000    -0.454462   
O46      O      0.445270000000     0.523400000000     0.949620000000    -0.455039   
O47      O      0.513500000000     0.586750000000     0.953710000000    -0.449414   
O48      O      0.505850000000     0.454520000000     0.945570000000    -0.449778   
S1       S      0.841370000000     0.579520000000     0.036750000000    -0.0508507  
S2       S      0.180510000000     0.414660000000     0.028770000000    -0.0516871  
S3       S      0.480490000000     0.863700000000     0.908900000000    -0.0582365  
S4       S      0.482070000000     0.207140000000     0.106710000000    -0.0566208  
S5       S      0.464580000000     0.132760000000     0.856960000000    -0.0615119  
S6       S      0.464280000000     0.093660000000     0.185630000000    -0.0506648  
S7       S      0.926510000000     0.534170000000     0.836590000000    -0.0581588  
S8       S      0.985970000000     0.414410000000     0.177870000000    -0.0522285  
S9       S      0.160040000000     0.991580000000     0.428540000000    -0.0502843  
S10      S      0.654310000000     0.994120000000     0.607580000000    -0.0549813  
S11      S      0.047830000000     0.669590000000     0.391910000000    -0.0597337  
S12      S      0.942990000000     0.174310000000     0.604340000000    -0.0527025  


