data_structure

_audit_creation_method RASPA-1.0
_audit_creation_date 2023-5-25
_audit_author_name 'Poobodin Mano'

_cell_length_a    28.7753
_cell_length_b    28.8273
_cell_length_c    29.2894
_cell_angle_alpha 89.997
_cell_angle_beta  89.997
_cell_angle_gamma 89.997
_cell_volume      24296

_symmetry_cell_setting          triclinic
_symmetry_space_group_name_Hall 'P 1'
_symmetry_space_group_name_H-M  'P 1'
_symmetry_Int_Tables_number     1

_symmetry_equiv_pos_as_xyz 'x,y,z'

loop_
_atom_site_label
_atom_site_type_symbol
_atom_site_fract_x
_atom_site_fract_y
_atom_site_fract_z
_atom_site_charge
C1       C      0.044560000000     0.943990000000     0.475630000000     0.430342   
C2       C      0.012810000000     0.117910000000     0.482500000000     0.428287   
C3       C      0.942410000000     0.016540000000     0.493680000000     0.430933   
C4       C      0.114140000000     0.048070000000     0.464550000000     0.431996   
C5       C      0.986790000000     0.521120000000     0.606610000000     0.43062    
C6       C      0.999760000000     0.536970000000     0.433460000000     0.431094   
C7       C      0.003400000000     0.617460000000     0.526980000000     0.431188   
C8       C      0.982610000000     0.442200000000     0.513700000000     0.431711   
C9       C      0.525910000000     0.021860000000     0.414070000000     0.431178   
C10      C      0.522220000000     0.010330000000     0.587890000000     0.431492   
C11      C      0.436180000000     0.024440000000     0.498260000000     0.429768   
C12      C      0.612510000000     0.007040000000     0.502190000000     0.430083   
C13      C      0.541150000000     0.081150000000     0.984300000000     0.429091   
C14      C      0.561990000000     0.908370000000     0.016370000000     0.431229   
C15      C      0.547550000000     0.008690000000     0.085610000000     0.428717   
C16      C      0.556080000000     0.979000000000     0.914120000000     0.430164   
C17      C      0.010490000000     0.520100000000     0.934570000000     0.429645   
C18      C      0.980860000000     0.507570000000     0.106100000000     0.429418   
C19      C      0.912040000000     0.491020000000     0.003480000000     0.429632   
C20      C      0.080120000000     0.535580000000     0.037390000000     0.430734   
C21      C      0.484490000000     0.411050000000     0.010610000000     0.429443   
C22      C      0.510000000000     0.586280000000     0.015140000000     0.429073   
C23      C      0.408810000000     0.511420000000     0.018150000000     0.429662   
C24      C      0.584200000000     0.486820000000     0.007680000000     0.430864   
C25      C      0.849980000000     0.432020000000     0.003680000000     0.0140479  
C26      C      0.656930000000     0.501000000000     0.965510000000     0.0174834  
C27      C      0.657600000000     0.462180000000     0.044100000000     0.100523   
C28      C      0.695690000000     0.468560000000     0.949970000000    -0.107956   
C29      C      0.801720000000     0.435220000000     0.025540000000    -0.100479   
C30      C      0.696400000000     0.429180000000     0.027390000000    -0.133021   
C31      C      0.769890000000     0.464180000000     0.995860000000     0.0136657  
C32      C      0.724270000000     0.452950000000     0.990360000000     0.0281521  
C33      C      0.838300000000     0.508820000000     0.964190000000     0.0134265  
C34      C      0.788440000000     0.511510000000     0.982110000000    -0.0994518  
C35      C      0.677290000000     0.501530000000     0.073750000000    -0.193223   
C36      C      0.152750000000     0.515800000000     0.077390000000     0.0158305  
C37      C      0.335320000000     0.537520000000     0.982570000000     0.0164181  
C38      C      0.336030000000     0.498590000000     0.060970000000     0.0986426  
C39      C      0.297680000000     0.571600000000     0.999000000000    -0.107975   
C40      C      0.197520000000     0.502530000000     0.053010000000    -0.099934   
C41      C      0.297710000000     0.532050000000     0.076470000000    -0.132093   
C42      C      0.222140000000     0.545290000000     0.034710000000     0.0132736  
C43      C      0.269330000000     0.549100000000     0.036390000000     0.0280519  
C44      C      0.146730000000     0.589750000000     0.032320000000     0.0134094  
C45      C      0.192210000000     0.578330000000     0.006850000000    -0.100229   
C46      C      0.316110000000     0.450670000000     0.049140000000    -0.192646   
C47      C      0.506150000000     0.661190000000     0.056390000000     0.0129948  
C48      C      0.609450000000     0.837220000000     0.013610000000     0.0179477  
C49      C      0.533730000000     0.839700000000     0.058270000000     0.0990679  
C50      C      0.596260000000     0.790040000000     0.993260000000    -0.107778   
C51      C      0.546970000000     0.691700000000     0.070920000000    -0.0995844  
C52      C      0.521550000000     0.790830000000     0.041140000000    -0.131491   
C53      C      0.566540000000     0.717190000000     0.030020000000     0.0128101  
C54      C      0.563990000000     0.764100000000     0.025160000000     0.0283317  
C55      C      0.539320000000     0.656680000000     0.976420000000     0.0125193  
C56      C      0.581430000000     0.685860000000     0.991210000000    -0.100201   
C57      C      0.553160000000     0.838000000000     0.107090000000    -0.194016   
C58      C      0.495260000000     0.146470000000     0.952090000000     0.0127824  
C59      C      0.494750000000     0.335750000000     0.049220000000     0.0178353  
C60      C      0.457420000000     0.339560000000     0.970960000000     0.0971545  
C61      C      0.527800000000     0.297580000000     0.033440000000    -0.10715    
C62      C      0.475490000000     0.189350000000     0.976420000000    -0.0992804  
C63      C      0.485580000000     0.296380000000     0.956280000000    -0.130105   
C64      C      0.513240000000     0.222410000000     0.992750000000     0.0133208  
C65      C      0.505090000000     0.268910000000     0.996330000000     0.0262895  
C66      C      0.573490000000     0.160420000000     0.987500000000     0.0144939  
C67      C      0.554170000000     0.199880000000     0.016690000000    -0.100494   
C68      C      0.407410000000     0.326090000000     0.983550000000    -0.192126   
C69      C      0.522550000000     0.944410000000     0.843800000000     0.0134075  
C70      C      0.540000000000     0.046150000000     0.662370000000     0.0174701  
C71      C      0.498040000000     0.968580000000     0.658040000000     0.0988449  
C72      C      0.571630000000     0.027700000000     0.700260000000    -0.107941   
C73      C      0.506750000000     0.970780000000     0.801190000000    -0.0994774  
C74      C      0.527390000000     0.950970000000     0.698380000000    -0.131621   
C75      C      0.547840000000     0.988530000000     0.773540000000     0.0129311  
C76      C      0.546460000000     0.990470000000     0.727040000000     0.0274994  
C77      C      0.600000000000     0.984380000000     0.841690000000     0.0136587  
C78      C      0.585070000000     0.013680000000     0.800630000000    -0.100069   
C79      C      0.449450000000     0.983380000000     0.674080000000    -0.193777   
C80      C      0.586030000000     0.032310000000     0.156930000000     0.0138714  
C81      C      0.502720000000     0.989450000000     0.339460000000     0.0171463  
C82      C      0.540410000000     0.069340000000     0.345520000000     0.100959   
C83      C      0.529260000000     0.980440000000     0.295170000000    -0.107646   
C84      C      0.570320000000     0.061050000000     0.198190000000    -0.101138   
C85      C      0.568720000000     0.059340000000     0.301950000000    -0.13339    
C86      C      0.536850000000     0.032580000000     0.226410000000     0.0137875  
C87      C      0.542840000000     0.025380000000     0.271970000000     0.028121   
C88      C      0.509680000000     0.988140000000     0.158070000000     0.0132401  
C89      C      0.494880000000     0.015070000000     0.200530000000    -0.100541   
C90      C      0.498110000000     0.100280000000     0.335410000000    -0.193169   
C91      C      0.038150000000     0.486820000000     0.860920000000     0.0128392  
C92      C      0.941690000000     0.527820000000     0.678030000000     0.0175779  
C93      C      0.017740000000     0.483060000000     0.675720000000     0.0986837  
C94      C      0.955310000000     0.549440000000     0.723970000000    -0.107584   
C95      C      0.006240000000     0.472320000000     0.821510000000    -0.0997468  
C96      C      0.030990000000     0.502820000000     0.722600000000    -0.131668   
C97      C      0.987640000000     0.514450000000     0.796080000000     0.0128878  
C98      C      0.988850000000     0.518350000000     0.749670000000     0.0274396  
C99      C      0.999830000000     0.565140000000     0.863370000000     0.0133133  
C100     C      0.965290000000     0.550970000000     0.826110000000    -0.100258   
C101     C      0.998850000000     0.433410000000     0.680060000000    -0.193114   
C102     C      0.991490000000     0.465080000000     0.178910000000     0.0130837  
C103     C      0.966910000000     0.565080000000     0.360480000000     0.0179654  
C104     C      0.045040000000     0.524140000000     0.362650000000     0.0995062  
C105     C      0.952070000000     0.536010000000     0.319510000000    -0.107321   
C106     C      0.020930000000     0.482670000000     0.219030000000    -0.100034   
C107     C      0.030880000000     0.494970000000     0.320600000000    -0.131805   
C108     C      0.993990000000     0.518730000000     0.245970000000     0.0129773  
C109     C      0.993930000000     0.519500000000     0.292560000000     0.0270747  
C110     C      0.946170000000     0.539550000000     0.177080000000     0.0136797  
C111     C      0.973810000000     0.558140000000     0.217710000000    -0.0999244  
C112     C      0.076460000000     0.564990000000     0.349120000000    -0.193259   
C113     C      0.364640000000     0.070910000000     0.510600000000     0.0129237  
C114     C      0.182240000000     0.046300000000     0.413460000000     0.0182901  
C115     C      0.185760000000     0.087970000000     0.489720000000     0.0992226  
C116     C      0.229000000000     0.022860000000     0.422850000000    -0.107962   
C117     C      0.334920000000     0.091360000000     0.472280000000    -0.0993122  
C118     C      0.234340000000     0.067760000000     0.498490000000    -0.131497   
C119     C      0.305360000000     0.053740000000     0.450740000000     0.0122638  
C120     C      0.258240000000     0.052050000000     0.454900000000     0.028386   
C121     C      0.360930000000     0.992340000000     0.472540000000     0.0123099  
C122     C      0.332950000000     0.012890000000     0.432740000000    -0.0999801  
C123     C      0.188940000000     0.138170000000     0.472430000000    -0.194      
C124     C      0.688680000000     0.039350000000     0.480730000000     0.0139848  
C125     C      0.877800000000     0.993190000000     0.544200000000     0.0172774  
C126     C      0.863840000000     0.040540000000     0.471590000000     0.0991294  
C127     C      0.831850000000     0.967040000000     0.536380000000    -0.109091   
C128     C      0.729510000000     0.050940000000     0.511690000000    -0.0999801  
C129     C      0.817490000000     0.015360000000     0.465030000000    -0.132862   
C130     C      0.754870000000     0.006910000000     0.524420000000     0.0130877  
C131     C      0.798760000000     0.997520000000     0.509880000000     0.0297552  
C132     C      0.682870000000     0.959640000000     0.516830000000     0.0122688  
C133     C      0.724910000000     0.970760000000     0.547650000000    -0.100429   
C134     C      0.856570000000     0.089400000000     0.491300000000    -0.193312   
C135     C      0.082890000000     0.873870000000     0.507370000000     0.0137983  
C136     C      0.970000000000     0.695290000000     0.514670000000     0.0175663  
C137     C      0.051810000000     0.686360000000     0.545890000000     0.0983632  
C138     C      0.986850000000     0.730240000000     0.479070000000    -0.107547   
C139     C      0.057610000000     0.832080000000     0.527910000000    -0.0994002  
C140     C      0.068430000000     0.725030000000     0.513420000000    -0.131016   
C141     C      0.034230000000     0.802520000000     0.491460000000     0.0128861  
C142     C      0.028860000000     0.755880000000     0.497270000000     0.026861   
C143     C      0.035190000000     0.868780000000     0.436010000000     0.0139323  
C144     C      0.006440000000     0.828860000000     0.455750000000    -0.0999943  
C145     C      0.044230000000     0.705340000000     0.594300000000    -0.193674   
C146     C      0.981970000000     0.188840000000     0.445970000000     0.0119103  
C147     C      0.010680000000     0.364960000000     0.536520000000     0.018208   
C148     C      0.933810000000     0.374450000000     0.494100000000     0.100006   
C149     C      0.022160000000     0.322560000000     0.507750000000    -0.108206   
C150     C      0.945700000000     0.223720000000     0.463570000000    -0.100086   
C151     C      0.945140000000     0.330820000000     0.465420000000    -0.133127   
C152     C      0.968350000000     0.254000000000     0.499360000000     0.0124959  
C153     C      0.978030000000     0.299470000000     0.491400000000     0.0293324  
C154     C      0.024150000000     0.192580000000     0.522080000000     0.0131172  
C155     C      0.988310000000     0.227400000000     0.539230000000    -0.0999352  
C156     C      0.899540000000     0.363260000000     0.532810000000    -0.193091   
H1       H      0.788510000000     0.399180000000     0.029270000000     0.0417134  
H2       H      0.672720000000     0.534630000000     0.975740000000     0.0223614  
H3       H      0.837220000000     0.493830000000     0.929210000000     0.0246896  
H4       H      0.766770000000     0.529450000000     0.956330000000     0.0414175  
H5       H      0.716670000000     0.484830000000     0.922530000000     0.0434515  
H6       H      0.717630000000     0.418130000000     0.057120000000     0.0495125  
H7       H      0.873420000000     0.413060000000     0.027440000000     0.033822   
H8       H      0.633810000000     0.508320000000     0.935980000000     0.0337886  
H9       H      0.788190000000     0.533880000000     0.013010000000     0.0492416  
H10      H      0.680290000000     0.397370000000     0.012900000000     0.0545836  
H11      H      0.852640000000     0.544500000000     0.961110000000     0.0338472  
H12      H      0.804380000000     0.451230000000     0.059970000000     0.0491115  
H13      H      0.679520000000     0.437360000000     0.934300000000     0.0519066  
H14      H      0.634180000000     0.441270000000     0.066320000000     0.0135109  
H15      H      0.847390000000     0.411640000000     0.971520000000     0.0281252  
H16      H      0.702150000000     0.523320000000     0.054240000000     0.068566   
H17      H      0.695480000000     0.486980000000     0.103980000000     0.0613257  
H18      H      0.648580000000     0.524010000000     0.086090000000     0.0746059  
H19      H      0.218790000000     0.480970000000     0.076230000000     0.0410546  
H20      H      0.318340000000     0.508920000000     0.963320000000     0.0262207  
H21      H      0.155150000000     0.611940000000     0.062270000000     0.0276363  
H22      H      0.210450000000     0.611700000000     0.000510000000     0.0419859  
H23      H      0.276330000000     0.581320000000     0.968910000000     0.0436651  
H24      H      0.276860000000     0.516890000000     0.104580000000     0.049743   
H25      H      0.133600000000     0.483860000000     0.087420000000     0.0321805  
H26      H      0.358480000000     0.556180000000     0.958330000000     0.0339166  
H27      H      0.184020000000     0.562040000000     0.973410000000     0.0495371  
H28      H      0.314810000000     0.562870000000     0.091960000000     0.0563475  
H29      H      0.123440000000     0.609700000000     0.009210000000     0.0329213  
H30      H      0.188680000000     0.479960000000     0.023480000000     0.0523196  
H31      H      0.314340000000     0.603570000000     0.012490000000     0.0501928  
H32      H      0.359420000000     0.493430000000     0.090790000000     0.0172672  
H33      H      0.162090000000     0.534510000000     0.109320000000     0.0239544  
H34      H      0.290610000000     0.452910000000     0.020770000000     0.0677222  
H35      H      0.298640000000     0.435370000000     0.079430000000     0.0596397  
H36      H      0.344670000000     0.427020000000     0.038690000000     0.0673969  
H37      H      0.536910000000     0.715030000000     0.099380000000     0.040754   
H38      H      0.632130000000     0.831640000000     0.043840000000     0.0257508  
H39      H      0.512820000000     0.680080000000     0.961100000000     0.0283582  
H40      H      0.594400000000     0.704980000000     0.960910000000     0.0416104  
H41      H      0.629110000000     0.770510000000     0.987690000000     0.0433712  
H42      H      0.500680000000     0.772500000000     0.067330000000     0.0504067  
H43      H      0.494740000000     0.639770000000     0.085890000000     0.0343511  
H44      H      0.629960000000     0.856790000000     0.987800000000     0.0326849  
H45      H      0.609700000000     0.662550000000     0.003150000000     0.0485663  
H46      H      0.498160000000     0.794550000000     0.011150000000     0.0576706  
H47      H      0.550820000000     0.631940000000     0.949560000000     0.0346825  
H48      H      0.574710000000     0.668860000000     0.084820000000     0.050067   
H49      H      0.578810000000     0.795100000000     0.959760000000     0.0510072  
H50      H      0.500640000000     0.859600000000     0.060220000000     0.0163904  
H51      H      0.476630000000     0.684180000000     0.046970000000     0.0250447  
H52      H      0.584410000000     0.815490000000     0.109150000000     0.0682038  
H53      H      0.526470000000     0.824250000000     0.130920000000     0.0600432  
H54      H      0.562680000000     0.873520000000     0.118470000000     0.0692519  
H55      H      0.449680000000     0.205900000000     0.953620000000     0.0408349  
H56      H      0.463970000000     0.319610000000     0.065770000000     0.0240729  
H57      H      0.587860000000     0.175190000000     0.955360000000     0.027081   
H58      H      0.583050000000     0.224890000000     0.022130000000     0.0416456  
H59      H      0.536180000000     0.276230000000     0.063960000000     0.0428615  
H60      H      0.464680000000     0.275200000000     0.932350000000     0.0494585  
H61      H      0.467250000000     0.120260000000     0.947920000000     0.03461    
H62      H      0.512940000000     0.356630000000     0.075650000000     0.0341298  
H63      H      0.542870000000     0.186260000000     0.050420000000     0.0497297  
H64      H      0.515860000000     0.308660000000     0.936020000000     0.0561118  
H65      H      0.602530000000     0.143820000000     0.006470000000     0.034974   
H66      H      0.455980000000     0.177430000000     0.007000000000     0.0498214  
H67      H      0.560480000000     0.313180000000     0.020220000000     0.0507002  
H68      H      0.454890000000     0.362750000000     0.940690000000     0.0170014  
H69      H      0.506330000000     0.157220000000     0.917280000000     0.0252147  
H70      H      0.406780000000     0.299360000000     0.010850000000     0.0665924  
H71      H      0.389110000000     0.312030000000     0.953150000000     0.0597484  
H72      H      0.388120000000     0.357160000000     0.995560000000     0.0664327  
H73      H      0.482520000000     0.948540000000     0.781680000000     0.0410866  
H74      H      0.510690000000     0.065550000000     0.678100000000     0.0252579  
H75      H      0.617990000000     0.952730000000     0.829010000000     0.0269873  
H76      H      0.616790000000     0.019890000000     0.779870000000     0.041837   
H77      H      0.581250000000     0.057900000000     0.721820000000     0.0433682  
H78      H      0.507830000000     0.924530000000     0.717950000000     0.0499585  
H79      H      0.491850000000     0.936880000000     0.865610000000     0.0349476  
H80      H      0.560380000000     0.071280000000     0.641660000000     0.0341956  
H81      H      0.571330000000     0.047650000000     0.812490000000     0.0497825  
H82      H      0.557770000000     0.932030000000     0.684120000000     0.0565009  
H83      H      0.625370000000     0.004710000000     0.862140000000     0.0357038  
H84      H      0.486160000000     0.001390000000     0.812300000000     0.0504598  
H85      H      0.603860000000     0.012950000000     0.685190000000     0.0504294  
H86      H      0.492930000000     0.938710000000     0.634510000000     0.0173104  
H87      H      0.537220000000     0.910550000000     0.832670000000     0.0253758  
H88      H      0.451480000000     0.010960000000     0.700480000000     0.0681729  
H89      H      0.430630000000     0.953210000000     0.688730000000     0.0608797  
H90      H      0.429070000000     0.996660000000     0.644640000000     0.0700311  
H91      H      0.602150000000     0.070850000000     0.217300000000     0.0415351  
H92      H      0.467060000000     0.001220000000     0.330590000000     0.0222918  
H93      H      0.524020000000     0.954120000000     0.169140000000     0.0235194  
H94      H      0.470890000000     0.993780000000     0.221420000000     0.0410619  
H95      H      0.508910000000     0.956640000000     0.273200000000     0.0432934  
H96      H      0.575500000000     0.092950000000     0.284630000000     0.0494555  
H97      H      0.607720000000     0.054770000000     0.134550000000     0.0330407  
H98      H      0.498940000000     0.956120000000     0.358170000000     0.0338618  
H99      H      0.474350000000     0.045730000000     0.189420000000     0.0494992  
H100     H      0.602860000000     0.044060000000     0.311440000000     0.0553478  
H101     H      0.478360000000     0.980790000000     0.137040000000     0.0342764  
H102     H      0.552830000000     0.093290000000     0.186440000000     0.0482204  
H103     H      0.561780000000     0.961510000000     0.303710000000     0.0518866  
H104     H      0.563650000000     0.089360000000     0.368680000000     0.01443    
H105     H      0.608220000000     0.003200000000     0.169070000000     0.0288269  
H106     H      0.474360000000     0.083680000000     0.310390000000     0.067823   
H107     H      0.509640000000     0.134190000000     0.321400000000     0.0607331  
H108     H      0.478480000000     0.106960000000     0.367390000000     0.0737841  
H109     H      0.024200000000     0.446750000000     0.799530000000     0.0408426  
H110     H      0.919030000000     0.497250000000     0.684380000000     0.0250041  
H111     H      0.030160000000     0.582340000000     0.846940000000     0.0266453  
H112     H      0.955870000000     0.582970000000     0.807190000000     0.0415436  
H113     H      0.922550000000     0.554660000000     0.743410000000     0.0430317  
H114     H      0.053780000000     0.477960000000     0.740720000000     0.0499423  
H115     H      0.047100000000     0.455780000000     0.881640000000     0.0347314  
H116     H      0.920880000000     0.553650000000     0.658570000000     0.0323265  
H117     H      0.933250000000     0.536590000000     0.841920000000     0.0497282  
H118     H      0.052900000000     0.534060000000     0.716900000000     0.0567723  
H119     H      0.982820000000     0.591150000000     0.885830000000     0.0361709  
H120     H      0.975970000000     0.453580000000     0.836190000000     0.050638   
H121     H      0.971800000000     0.583810000000     0.718170000000     0.049545   
H122     H      0.050450000000     0.480470000000     0.655600000000     0.0169479  
H123     H      0.070970000000     0.500510000000     0.846060000000     0.0252927  
H124     H      0.967990000000     0.432110000000     0.702780000000     0.0675768  
H125     H      0.026010000000     0.410140000000     0.694290000000     0.0596756  
H126     H      0.988870000000     0.420070000000     0.645850000000     0.0680866  
H127     H      0.029860000000     0.451890000000     0.240090000000     0.0413731  
H128     H      0.980800000000     0.598660000000     0.347760000000     0.0223601  
H129     H      0.914010000000     0.522940000000     0.190370000000     0.0251781  
H130     H      0.951910000000     0.582690000000     0.237180000000     0.0414458  
H131     H      0.926310000000     0.555730000000     0.299300000000     0.0433806  
H132     H      0.062770000000     0.487810000000     0.300380000000     0.0494164  
H133     H      0.013040000000     0.441030000000     0.158130000000     0.0350823  
H134     H      0.935690000000     0.573360000000     0.381290000000     0.0338942  
H135     H      0.003330000000     0.579010000000     0.204370000000     0.0513025  
H136     H      0.016730000000     0.461090000000     0.332260000000     0.0547356  
H137     H      0.935370000000     0.569010000000     0.155020000000     0.0349621  
H138     H      0.053650000000     0.498340000000     0.206040000000     0.0487531  
H139     H      0.933390000000     0.504850000000     0.332290000000     0.0527471  
H140     H      0.066110000000     0.501020000000     0.384990000000     0.0155895  
H141     H      0.961650000000     0.444970000000     0.192770000000     0.0268532  
H142     H      0.059380000000     0.587690000000     0.323490000000     0.0678794  
H143     H      0.109520000000     0.551880000000     0.334380000000     0.0609395  
H144     H      0.084930000000     0.586030000000     0.379770000000     0.0721065  
H145     H      0.314520000000     0.121520000000     0.484550000000     0.0404665  
H146     H      0.188160000000     0.077960000000     0.392580000000     0.0250595  
H147     H      0.336300000000     0.977810000000     0.498100000000     0.0273951  
H148     H      0.311210000000     0.984910000000     0.417960000000     0.0413814  
H149     H      0.246540000000     0.018300000000     0.389320000000     0.0431827  
H150     H      0.254880000000     0.092630000000     0.519080000000     0.0501769  
H151     H      0.388830000000     0.097900000000     0.523610000000     0.033969   
H152     H      0.160550000000     0.022150000000     0.392880000000     0.0333129  
H153     H      0.357150000000     0.025020000000     0.405660000000     0.048685   
H154     H      0.230280000000     0.036540000000     0.520430000000     0.0574617  
H155     H      0.382390000000     0.963260000000     0.459230000000     0.0353237  
H156     H      0.358600000000     0.105280000000     0.445590000000     0.0497418  
H157     H      0.223160000000     0.988120000000     0.438320000000     0.0509885  
H158     H      0.167680000000     0.089580000000     0.523280000000     0.0166689  
H159     H      0.341240000000     0.061040000000     0.539220000000     0.0243233  
H160     H      0.210320000000     0.140560000000     0.440950000000     0.0678396  
H161     H      0.204870000000     0.160670000000     0.498960000000     0.0600258  
H162     H      0.153570000000     0.151650000000     0.464990000000     0.0693795  
H163     H      0.752170000000     0.077480000000     0.495680000000     0.0407949  
H164     H      0.871850000000     0.021330000000     0.569500000000     0.026992   
H165     H      0.695380000000     0.940260000000     0.486370000000     0.0287338  
H166     H      0.743790000000     0.937890000000     0.554410000000     0.0416502  
H167     H      0.817770000000     0.957380000000     0.570390000000     0.043479   
H168     H      0.792690000000     0.037320000000     0.445690000000     0.050706   
H169     H      0.668860000000     0.071610000000     0.473470000000     0.0343246  
H170     H      0.903470000000     0.968730000000     0.559300000000     0.0315255  
H171     H      0.712430000000     0.984650000000     0.580860000000     0.0484659  
H172     H      0.823770000000     0.984720000000     0.442800000000     0.0568954  
H173     H      0.658640000000     0.936680000000     0.535930000000     0.0339499  
H174     H      0.715850000000     0.067030000000     0.543480000000     0.0507559  
H175     H      0.838550000000     0.934710000000     0.516780000000     0.0500378  
H176     H      0.878940000000     0.045340000000     0.436930000000     0.0173516  
H177     H      0.702490000000     0.026490000000     0.447590000000     0.0246261  
H178     H      0.839750000000     0.087890000000     0.525390000000     0.0681621  
H179     H      0.834430000000     0.110380000000     0.468070000000     0.0593693  
H180     H      0.890590000000     0.107290000000     0.494800000000     0.0703     
H181     H      0.082410000000     0.812780000000     0.549630000000     0.0410305  
H182     H      0.956620000000     0.714440000000     0.544880000000     0.0247934  
H183     H      0.064780000000     0.854000000000     0.416320000000     0.0267349  
H184     H      0.996690000000     0.806080000000     0.426660000000     0.0418795  
H185     H      0.957240000000     0.753880000000     0.471920000000     0.0432851  
H186     H      0.097890000000     0.744030000000     0.528950000000     0.049594   
H187     H      0.094240000000     0.897430000000     0.535270000000     0.0345534  
H188     H      0.940260000000     0.675900000000     0.499760000000     0.0345287  
H189     H      0.974180000000     0.842730000000     0.471570000000     0.0498122  
H190     H      0.083230000000     0.708140000000     0.482540000000     0.0558352  
H191     H      0.013030000000     0.888800000000     0.411950000000     0.0352828  
H192     H      0.030000000000     0.845120000000     0.551150000000     0.0507807  
H193     H      0.996260000000     0.711960000000     0.446960000000     0.0505288  
H194     H      0.080400000000     0.660490000000     0.548380000000     0.0167545  
H195     H      0.114750000000     0.860990000000     0.490000000000     0.0249707  
H196     H      0.019030000000     0.734510000000     0.594400000000     0.0678832  
H197     H      0.077650000000     0.717980000000     0.608650000000     0.060523   
H198     H      0.030900000000     0.677360000000     0.616850000000     0.0693402  
H199     H      0.932240000000     0.243440000000     0.433870000000     0.0407662  
H200     H      0.995450000000     0.353060000000     0.569380000000     0.0202369  
H201     H      0.054890000000     0.211980000000     0.509240000000     0.023743   
H202     H      0.003260000000     0.250090000000     0.566080000000     0.040733   
H203     H      0.045750000000     0.299240000000     0.526940000000     0.0436445  
H204     H      0.911950000000     0.313380000000     0.456440000000     0.0493084  
H205     H      0.964330000000     0.164230000000     0.422400000000     0.0331634  
H206     H      0.043550000000     0.383270000000     0.545030000000     0.0329395  
H207     H      0.959610000000     0.207950000000     0.555960000000     0.0492253  
H208     H      0.962140000000     0.341530000000     0.433010000000     0.0548185  
H209     H      0.036100000000     0.171010000000     0.551260000000     0.0342795  
H210     H      0.916080000000     0.204650000000     0.479140000000     0.0457546  
H211     H      0.042050000000     0.334090000000     0.477250000000     0.0524264  
H212     H      0.916110000000     0.399440000000     0.470880000000     0.0142174  
H213     H      0.008740000000     0.207940000000     0.426040000000     0.0283165  
H214     H      0.913660000000     0.336270000000     0.556030000000     0.0673515  
H215     H      0.866140000000     0.350630000000     0.518440000000     0.060736   
H216     H      0.892340000000     0.395040000000     0.553060000000     0.0732877  
N1       N      0.631320000000     0.481640000000     0.004980000000    -0.191022   
N2       N      0.867490000000     0.478740000000     0.993070000000    -0.179755   
N3       N      0.361740000000     0.517520000000     0.021230000000    -0.19014    
N4       N      0.124740000000     0.546730000000     0.048420000000    -0.180376   
N5       N      0.567450000000     0.862740000000     0.027570000000    -0.190737   
N6       N      0.518740000000     0.632830000000     0.016260000000    -0.179693   
N7       N      0.479650000000     0.363800000000     0.009800000000    -0.190242   
N8       N      0.536030000000     0.127610000000     0.976280000000    -0.179423   
N9       N      0.521310000000     0.007710000000     0.634520000000    -0.190547   
N10      N      0.558890000000     0.970450000000     0.868290000000    -0.179706   
N11      N      0.525330000000     0.025620000000     0.367540000000    -0.191037   
N12      N      0.545870000000     0.013040000000     0.131990000000    -0.179986   
N13      N      0.983200000000     0.512970000000     0.652450000000    -0.190817   
N14      N      0.016100000000     0.523680000000     0.888300000000    -0.179534   
N15      N      0.003390000000     0.541170000000     0.387070000000    -0.190958   
N16      N      0.973520000000     0.504510000000     0.152140000000    -0.179588   
N17      N      0.159560000000     0.059200000000     0.456710000000    -0.190958   
N18      N      0.389110000000     0.029010000000     0.494400000000    -0.180194   
N19      N      0.895690000000     0.013780000000     0.501450000000    -0.190524   
N20      N      0.659730000000     0.002670000000     0.501440000000    -0.179761   
N21      N      0.008520000000     0.664630000000     0.528820000000    -0.190547   
N22      N      0.053420000000     0.897470000000     0.473440000000    -0.179877   
N23      N      0.976780000000     0.395210000000     0.513010000000    -0.191815   
N24      N      0.004920000000     0.164550000000     0.484310000000    -0.180568   
Ni1      Ni     0.035860000000     0.030610000000     0.519120000000     0.991234   
Ni2      Ni     0.021200000000     0.031330000000     0.439190000000     1.0033     
Ni3      Ni     0.034110000000     0.524420000000     0.522950000000     0.998186   
Ni4      Ni     0.952250000000     0.535080000000     0.517310000000     0.996409   
Ni5      Ni     0.520060000000     0.974830000000     0.498290000000     0.99253    
Ni6      Ni     0.528570000000     0.056760000000     0.503610000000     1.00172    
Ni7      Ni     0.510590000000     0.989160000000     0.998760000000     0.990274   
Ni8      Ni     0.592550000000     0.999950000000     0.000790000000     1.00165    
Ni9      Ni     0.006950000000     0.473770000000     0.019860000000     0.996538   
Ni10     Ni     0.985100000000     0.553470000000     0.020900000000     0.995321   
Ni11     Ni     0.498800000000     0.497090000000     0.053330000000     1.00055    
Ni12     Ni     0.494220000000     0.500580000000     0.972290000000     0.988919   
O1       O      0.050220000000     0.965880000000     0.513330000000    -0.451361   
O2       O      0.021680000000     0.095490000000     0.519310000000    -0.4532     
O3       O      0.971060000000     0.015850000000     0.527290000000    -0.449909   
O4       O      0.098960000000     0.046040000000     0.505610000000    -0.454095   
O5       O      0.086720000000     0.040580000000     0.430800000000    -0.453733   
O6       O      0.957070000000     0.022820000000     0.452890000000    -0.457291   
O7       O      0.011750000000     0.096860000000     0.443960000000    -0.454465   
O8       O      0.030640000000     0.965560000000     0.439880000000    -0.454007   
O9       O      0.026660000000     0.518790000000     0.587370000000    -0.456599   
O10      O      0.036210000000     0.529340000000     0.457580000000    -0.454125   
O11      O      0.039140000000     0.590810000000     0.528500000000    -0.452255   
O12      O      0.023480000000     0.459220000000     0.518230000000    -0.45545    
O13      O      0.947110000000     0.468990000000     0.511200000000    -0.455141   
O14      O      0.962650000000     0.600120000000     0.522870000000    -0.456325   
O15      O      0.959940000000     0.540810000000     0.452680000000    -0.453534   
O16      O      0.950200000000     0.529290000000     0.582800000000    -0.451875   
O17      O      0.523330000000     0.981840000000     0.433130000000    -0.450916   
O18      O      0.516110000000     0.973710000000     0.563730000000    -0.451737   
O19      O      0.454600000000     0.984200000000     0.494470000000    -0.455105   
O20      O      0.586670000000     0.970770000000     0.502300000000    -0.450681   
O21      O      0.594270000000     0.047580000000     0.501890000000    -0.454756   
O22      O      0.461810000000     0.060350000000     0.504450000000    -0.452745   
O23      O      0.529220000000     0.049560000000     0.568500000000    -0.455927   
O24      O      0.528270000000     0.058670000000     0.438470000000    -0.457797   
O25      O      0.505580000000     0.054260000000     0.984510000000    -0.448739   
O26      O      0.521020000000     0.925480000000     0.013540000000    -0.453905   
O27      O      0.509980000000     0.002200000000     0.062930000000    -0.451125   
O28      O      0.517000000000     0.975340000000     0.934890000000    -0.450503   
O29      O      0.592740000000     0.990570000000     0.936190000000    -0.454725   
O30      O      0.586980000000     0.009310000000     0.065230000000    -0.454352   
O31      O      0.597800000000     0.934090000000     0.009920000000    -0.452219   
O32      O      0.581800000000     0.064650000000     0.991710000000    -0.45437    
O33      O      0.017760000000     0.481380000000     0.955160000000    -0.448812   
O34      O      0.995220000000     0.471950000000     0.084060000000    -0.452981   
O35      O      0.943020000000     0.459440000000     0.008330000000    -0.453466   
O36      O      0.068990000000     0.492850000000     0.032930000000    -0.455277   
O37      O      0.049480000000     0.567610000000     0.032650000000    -0.448961   
O38      O      0.922810000000     0.533980000000     0.007610000000    -0.450829   
O39      O      0.973720000000     0.546050000000     0.085190000000    -0.451584   
O40      O      0.996970000000     0.555620000000     0.957110000000    -0.456406   
O41      O      0.491660000000     0.431520000000     0.048770000000    -0.456372   
O42      O      0.505970000000     0.563390000000     0.052520000000    -0.452659   
O43      O      0.432670000000     0.504200000000     0.054430000000    -0.45496    
O44      O      0.564550000000     0.489120000000     0.046890000000    -0.455571   
O45      O      0.559990000000     0.490030000000     0.971040000000    -0.451606   
O46      O      0.428850000000     0.512300000000     0.979030000000    -0.45059    
O47      O      0.506510000000     0.565580000000     0.976590000000    -0.452165   
O48      O      0.482630000000     0.434660000000     0.973450000000    -0.449345   


