data_structure

_audit_creation_method RASPA-1.0
_audit_creation_date 2023-5-25
_audit_author_name 'Poobodin Mano'

_cell_length_a    29.4412
_cell_length_b    29.1462
_cell_length_c    29.3401
_cell_angle_alpha 89.997
_cell_angle_beta  89.997
_cell_angle_gamma 89.997
_cell_volume      25176.7

_symmetry_cell_setting          triclinic
_symmetry_space_group_name_Hall 'P 1'
_symmetry_space_group_name_H-M  'P 1'
_symmetry_Int_Tables_number     1

_symmetry_equiv_pos_as_xyz 'x,y,z'

loop_
_atom_site_label
_atom_site_type_symbol
_atom_site_fract_x
_atom_site_fract_y
_atom_site_fract_z
_atom_site_charge
C1       C      0.966420000000     0.924940000000     0.523800000000     0.429209   
C2       C      0.990480000000     0.098080000000     0.516270000000     0.432401   
C3       C      0.892890000000     0.023160000000     0.518510000000     0.431272   
C4       C      0.064550000000     0.999710000000     0.522030000000     0.429325   
C5       C      0.008510000000     0.519550000000     0.587850000000     0.433502   
C6       C      0.021360000000     0.500850000000     0.415490000000     0.438128   
C7       C      0.006340000000     0.597160000000     0.492340000000     0.432823   
C8       C      0.023650000000     0.424150000000     0.512610000000     0.437444   
C9       C      0.475240000000     0.000650000000     0.405100000000     0.433938   
C10      C      0.482830000000     0.011280000000     0.578340000000     0.431417   
C11      C      0.392900000000     0.009310000000     0.494730000000     0.435441   
C12      C      0.565790000000     0.002500000000     0.487740000000     0.429264   
C13      C      0.530310000000     0.097520000000     0.986840000000     0.43358    
C14      C      0.506140000000     0.925060000000     0.000340000000     0.431574   
C15      C      0.519030000000     0.018850000000     0.079990000000     0.433917   
C16      C      0.517380000000     0.003450000000     0.906970000000     0.433332   
C17      C      0.023990000000     0.494460000000     0.914110000000     0.431716   
C18      C      0.004640000000     0.506270000000     0.086490000000     0.430001   
C19      C      0.928050000000     0.497910000000     0.991150000000     0.429601   
C20      C      0.100300000000     0.502680000000     0.009150000000     0.428658   
C21      C      0.519070000000     0.423840000000     0.025160000000     0.431801   
C22      C      0.508950000000     0.598540000000     0.027940000000     0.431287   
C23      C      0.427830000000     0.504410000000     0.031380000000     0.433281   
C24      C      0.600410000000     0.517760000000     0.022940000000     0.43106    
C25      C      0.674720000000     0.510570000000     0.061020000000     0.0157714  
C26      C      0.856560000000     0.532400000000     0.962560000000     0.0130764  
C27      C      0.856650000000     0.455440000000     0.003170000000    -0.0380053  
C28      C      0.813780000000     0.546810000000     0.988530000000    -0.0973092  
C29      C      0.715550000000     0.481870000000     0.046040000000    -0.1047     
C30      C      0.814790000000     0.469990000000     0.031110000000    -0.0755627  
C31      C      0.740950000000     0.506470000000     0.008360000000     0.0264248  
C32      C      0.787170000000     0.505780000000     0.005950000000     0.0246123  
C33      C      0.668880000000     0.546130000000     0.982940000000     0.0145676  
C34      C      0.712170000000     0.521190000000     0.967960000000    -0.103297   
C35      C      0.844610000000     0.424760000000     0.963380000000     0.303986   
C36      C      0.357530000000     0.511160000000     0.076260000000     0.0159002  
C37      C      0.174500000000     0.467310000000     0.992580000000     0.013738   
C38      C      0.168730000000     0.546090000000     0.030640000000    -0.0374574  
C39      C      0.216100000000     0.456310000000     0.021640000000    -0.0976918  
C40      C      0.312520000000     0.534870000000     0.065050000000    -0.105427   
C41      C      0.210130000000     0.534190000000     0.060590000000    -0.0764297  
C42      C      0.285680000000     0.505530000000     0.032160000000     0.0288344  
C43      C      0.240030000000     0.499680000000     0.036540000000     0.0249523  
C44      C      0.357470000000     0.471610000000     0.999620000000     0.0135628  
C45      C      0.310680000000     0.491790000000     0.989060000000    -0.10244    
C46      C      0.181530000000     0.577480000000     0.991620000000     0.305989   
C47      C      0.526530000000     0.671050000000     0.988590000000     0.016463   
C48      C      0.458010000000     0.859910000000     0.023300000000     0.013349   
C49      C      0.529670000000     0.848060000000     0.975570000000    -0.0416681  
C50      C      0.468100000000     0.815850000000     0.050030000000    -0.0984134  
C51      C      0.494050000000     0.709260000000     0.975010000000    -0.106436   
C52      C      0.537300000000     0.801860000000     0.999570000000    -0.0729654  
C53      C      0.482470000000     0.737820000000     0.016390000000     0.0288485  
C54      C      0.493970000000     0.782890000000     0.020030000000     0.0218141  
C55      C      0.494360000000     0.671540000000     0.068680000000     0.0144842  
C56      C      0.462000000000     0.710980000000     0.055570000000    -0.106283   
C57      C      0.510460000000     0.841680000000     0.928240000000     0.302835   
C58      C      0.503110000000     0.173970000000     0.962210000000     0.0168418  
C59      C      0.534910000000     0.350350000000     0.063800000000     0.0135316  
C60      C      0.496610000000     0.352980000000     0.985530000000    -0.041204   
C61      C      0.561500000000     0.307390000000     0.049390000000    -0.0984826  
C62      C      0.487760000000     0.211270000000     0.995230000000    -0.105873   
C63      C      0.521480000000     0.308710000000     0.972470000000    -0.0740667  
C64      C      0.528680000000     0.234890000000     0.016080000000     0.0301428  
C65      C      0.534870000000     0.281100000000     0.013960000000     0.0222704  
C66      C      0.577080000000     0.165760000000     0.004730000000     0.0172372  
C67      C      0.562610000000     0.203140000000     0.038810000000    -0.108825   
C68      C      0.447470000000     0.343650000000     0.997160000000     0.302749   
C69      C      0.477970000000     0.976030000000     0.837750000000     0.0166435  
C70      C      0.504020000000     0.054560000000     0.647360000000     0.0133937  
C71      C      0.457500000000     0.981110000000     0.652700000000    -0.0407559  
C72      C      0.532080000000     0.040190000000     0.688960000000    -0.0985319  
C73      C      0.463930000000     0.003270000000     0.795620000000    -0.105324   
C74      C      0.482610000000     0.968660000000     0.697020000000    -0.0730303  
C75      C      0.504840000000     0.014380000000     0.766190000000     0.0266287  
C76      C      0.503790000000     0.010120000000     0.719930000000     0.0222856  
C77      C      0.557260000000     0.008380000000     0.832910000000     0.0146161  
C78      C      0.544010000000     0.037090000000     0.791050000000    -0.105144   
C79      C      0.410670000000     0.000130000000     0.662070000000     0.302399   
C80      C      0.452160000000     0.035020000000     0.331480000000     0.017647   
C81      C      0.556220000000     0.003200000000     0.153950000000     0.0121704  
C82      C      0.486040000000     0.053570000000     0.149580000000    -0.0379607  
C83      C      0.536460000000     0.977100000000     0.194790000000    -0.0989582  
C84      C      0.484400000000     0.049120000000     0.293270000000    -0.107687   
C85      C      0.466160000000     0.028510000000     0.191120000000    -0.0751303  
C86      C      0.500630000000     0.007400000000     0.266850000000     0.0255465  
C87      C      0.502980000000     0.007060000000     0.220410000000     0.0166691  
C88      C      0.486950000000     0.956270000000     0.334070000000     0.0148957  
C89      C      0.520260000000     0.969020000000     0.295810000000    -0.10478    
C90      C      0.507560000000     0.098920000000     0.162730000000     0.301394   
C91      C      0.015620000000     0.450090000000     0.842820000000     0.0145445  
C92      C      0.040910000000     0.545930000000     0.661020000000     0.0172915  
C93      C      0.964550000000     0.505280000000     0.658140000000    -0.0344556  
C94      C      0.055950000000     0.515480000000     0.700450000000    -0.100761   
C95      C      0.987860000000     0.463970000000     0.800750000000    -0.10405    
C96      C      0.978880000000     0.474800000000     0.698830000000    -0.0784467  
C97      C      0.013720000000     0.499480000000     0.773350000000     0.0277544  
C98      C      0.015220000000     0.498330000000     0.727010000000     0.0285665  
C99      C      0.055570000000     0.526570000000     0.842870000000     0.0141383  
C100     C      0.029930000000     0.541010000000     0.799990000000    -0.102128   
C101     C      0.934260000000     0.544570000000     0.672650000000     0.302446   
C102     C      0.979330000000     0.471350000000     0.159000000000     0.0166189  
C103     C      0.063470000000     0.514840000000     0.344060000000     0.0158301  
C104     C      0.993080000000     0.464370000000     0.344790000000    -0.0358681  
C105     C      0.046870000000     0.539320000000     0.300900000000    -0.102297   
C106     C      0.007440000000     0.461620000000     0.201670000000    -0.107307   
C107     C      0.977160000000     0.487040000000     0.300230000000    -0.0772485  
C108     C      0.018110000000     0.505550000000     0.227310000000     0.0250048  
C109     C      0.016360000000     0.507730000000     0.273680000000     0.0195587  
C110     C      0.008250000000     0.552710000000     0.156930000000     0.0145117  
C111     C      0.038380000000     0.543730000000     0.198700000000    -0.104463   
C112     C      0.015040000000     0.418170000000     0.336000000000     0.299503   
C113     C      0.134550000000     0.967840000000     0.487350000000     0.014668   
C114     C      0.322770000000     0.052870000000     0.510070000000     0.0149658  
C115     C      0.320140000000     0.974940000000     0.470980000000    -0.0398878  
C116     C      0.280440000000     0.040760000000     0.537950000000    -0.0982214  
C117     C      0.176600000000     0.993980000000     0.471230000000    -0.10374    
C118     C      0.275290000000     0.964310000000     0.495780000000    -0.0733174  
C119     C      0.204810000000     0.010460000000     0.511350000000     0.0255073  
C120     C      0.251030000000     0.007290000000     0.511810000000     0.0233507  
C121     C      0.137490000000     0.008720000000     0.562950000000     0.0140685  
C122     C      0.178680000000     0.036870000000     0.547320000000    -0.104522   
C123     C      0.312290000000     0.988850000000     0.421990000000     0.302519   
C124     C      0.637890000000     0.034730000000     0.458420000000     0.0145584  
C125     C      0.819210000000     0.017120000000     0.558200000000     0.0134056  
C126     C      0.824040000000     0.051630000000     0.478930000000    -0.0400589  
C127     C      0.778060000000     0.988280000000     0.544290000000    -0.0981735  
C128     C      0.678770000000     0.051960000000     0.485540000000    -0.103252   
C129     C      0.779870000000     0.026560000000     0.465780000000    -0.0725474  
C130     C      0.705510000000     0.012340000000     0.505780000000     0.0248666  
C131     C      0.751840000000     0.012390000000     0.506940000000     0.0235793  
C132     C      0.637460000000     0.961040000000     0.503220000000     0.0146145  
C133     C      0.677480000000     0.977750000000     0.532310000000    -0.104214   
C134     C      0.815240000000     0.101430000000     0.490260000000     0.302433   
C135     C      0.933930000000     0.854210000000     0.490020000000     0.014684   
C136     C      0.039060000000     0.674180000000     0.503970000000     0.0148501  
C137     C      0.962150000000     0.664810000000     0.466130000000    -0.0394574  
C138     C      0.020520000000     0.711890000000     0.535000000000    -0.0997324  
C139     C      0.959950000000     0.811660000000     0.474160000000    -0.102556   
C140     C      0.944590000000     0.706880000000     0.492810000000    -0.0733275  
C141     C      0.977990000000     0.783690000000     0.514040000000     0.0241982  
C142     C      0.982580000000     0.737190000000     0.510950000000     0.0248342  
C143     C      0.972770000000     0.851800000000     0.566080000000     0.0150173  
C144     C      0.001930000000     0.810970000000     0.551080000000    -0.103852   
C145     C      0.974400000000     0.677380000000     0.417690000000     0.302412   
C146     C      0.975910000000     0.174710000000     0.549170000000     0.0156664  
C147     C      0.070290000000     0.353820000000     0.508790000000     0.014873   
C148     C      0.993510000000     0.354040000000     0.548690000000    -0.0363198  
C149     C      0.059650000000     0.307160000000     0.486970000000    -0.100993   
C150     C      0.009930000000     0.210980000000     0.564590000000    -0.107223   
C151     C      0.983300000000     0.306560000000     0.528450000000    -0.0772929  
C152     C      0.030380000000     0.234800000000     0.523620000000     0.0257913  
C153     C      0.026330000000     0.280780000000     0.516250000000     0.0192028  
C154     C      0.018190000000     0.166380000000     0.474460000000     0.0135574  
C155     C      0.052840000000     0.202810000000     0.489760000000    -0.104826   
C156     C      0.008700000000     0.350530000000     0.597940000000     0.298494   
H1       H      0.737120000000     0.476690000000     0.076700000000     0.0461636  
H2       H      0.846030000000     0.518940000000     0.928720000000     0.0420272  
H3       H      0.678550000000     0.581200000000     0.994290000000     0.0278026  
H4       H      0.730480000000     0.543010000000     0.943150000000     0.0503977  
H5       H      0.793650000000     0.570140000000     0.966670000000     0.0463748  
H6       H      0.794600000000     0.438600000000     0.038540000000     0.0463213  
H7       H      0.655500000000     0.490800000000     0.087080000000     0.0372686  
H8       H      0.877750000000     0.563280000000     0.956090000000     0.0392167  
H9       H      0.702130000000     0.489670000000     0.949140000000     0.0635159  
H10      H      0.826080000000     0.484720000000     0.064190000000     0.0458891  
H11      H      0.645980000000     0.550100000000     0.953080000000     0.0381962  
H12      H      0.703950000000     0.447790000000     0.033600000000     0.0572432  
H13      H      0.824330000000     0.567420000000     0.018600000000     0.053111   
H14      H      0.877860000000     0.434620000000     0.026840000000     0.0618598  
H15      H      0.687170000000     0.542700000000     0.077270000000     0.0303958  
H16      H      0.866350000000     0.370020000000     0.926500000000     0.179676   
H17      H      0.294230000000     0.539830000000     0.097820000000     0.046523   
H18      H      0.186320000000     0.478730000000     0.958430000000     0.0418456  
H19      H      0.352480000000     0.436380000000     0.013270000000     0.0338292  
H20      H      0.291620000000     0.467380000000     0.967350000000     0.0510383  
H21      H      0.238360000000     0.431810000000     0.003330000000     0.0465544  
H22      H      0.228200000000     0.566640000000     0.068800000000     0.045336   
H23      H      0.377890000000     0.534510000000     0.098240000000     0.0365609  
H24      H      0.154790000000     0.435230000000     0.987230000000     0.0389272  
H25      H      0.315470000000     0.523240000000     0.968170000000     0.0628812  
H26      H      0.198280000000     0.519030000000     0.093270000000     0.0458875  
H27      H      0.377060000000     0.468340000000     0.967380000000     0.0452458  
H28      H      0.319030000000     0.569040000000     0.049530000000     0.0572429  
H29      H      0.204490000000     0.438060000000     0.052820000000     0.0537113  
H30      H      0.144800000000     0.565200000000     0.053180000000     0.0592872  
H31      H      0.350450000000     0.479360000000     0.096020000000     0.033468   
H32      H      0.224390000000     0.585850000000     0.937970000000     0.178708   
H33      H      0.508060000000     0.729440000000     0.946220000000     0.0602007  
H34      H      0.432780000000     0.852200000000     0.996160000000     0.0466772  
H35      H      0.525130000000     0.686410000000     0.085000000000     0.0303778  
H36      H      0.456320000000     0.732210000000     0.086450000000     0.0459855  
H37      H      0.434960000000     0.801480000000     0.061160000000     0.0463862  
H38      H      0.555230000000     0.777780000000     0.976500000000     0.0436688  
H39      H      0.533040000000     0.648860000000     0.958480000000     0.0383655  
H40      H      0.442130000000     0.885050000000     0.046990000000     0.0369476  
H41      H      0.428730000000     0.696600000000     0.044780000000     0.0550267  
H42      H      0.561250000000     0.807670000000     0.028300000000     0.0463728  
H43      H      0.477160000000     0.649310000000     0.094210000000     0.0360508  
H44      H      0.462200000000     0.693480000000     0.962020000000     0.0626268  
H45      H      0.488640000000     0.823990000000     0.080780000000     0.0503661  
H46      H      0.563920000000     0.863690000000     0.971380000000     0.0643762  
H47      H      0.559540000000     0.686750000000     0.998460000000     0.0271063  
H48      H      0.517760000000     0.861030000000     0.862130000000     0.177841   
H49      H      0.463630000000     0.234880000000     0.978200000000     0.058752   
H50      H      0.504970000000     0.339680000000     0.084330000000     0.0479826  
H51      H      0.597380000000     0.182060000000     0.977140000000     0.030158   
H52      H      0.593840000000     0.221240000000     0.050030000000     0.0504129  
H53      H      0.567450000000     0.286720000000     0.080640000000     0.0484691  
H54      H      0.501690000000     0.289300000000     0.946740000000     0.0441914  
H55      H      0.472970000000     0.154890000000     0.949500000000     0.038936   
H56      H      0.557060000000     0.371370000000     0.086330000000     0.0372123  
H57      H      0.546590000000     0.187010000000     0.069140000000     0.0698704  
H58      H      0.553450000000     0.318420000000     0.954710000000     0.0484264  
H59      H      0.599290000000     0.140760000000     0.022680000000     0.0432844  
H60      H      0.468250000000     0.194800000000     0.023250000000     0.0663151  
H61      H      0.594960000000     0.317510000000     0.034990000000     0.0518978  
H62      H      0.496630000000     0.374720000000     0.954340000000     0.0654808  
H63      H      0.519360000000     0.190830000000     0.932360000000     0.0278908  
H64      H      0.382500000000     0.359210000000     0.979770000000     0.176928   
H65      H      0.436480000000     0.984760000000     0.777560000000     0.0588624  
H66      H      0.476560000000     0.078210000000     0.658580000000     0.0451508  
H67      H      0.572690000000     0.975630000000     0.821070000000     0.0339373  
H68      H      0.574770000000     0.039970000000     0.769310000000     0.0461178  
H69      H      0.543070000000     0.072210000000     0.706290000000     0.0464796  
H70      H      0.460100000000     0.948170000000     0.719400000000     0.0450609  
H71      H      0.448100000000     0.972040000000     0.860590000000     0.0422817  
H72      H      0.526550000000     0.074010000000     0.623830000000     0.0378225  
H73      H      0.533730000000     0.072110000000     0.801930000000     0.0549124  
H74      H      0.510950000000     0.945120000000     0.688020000000     0.0470703  
H75      H      0.583460000000     0.027490000000     0.852550000000     0.0384565  
H76      H      0.448750000000     0.036260000000     0.807030000000     0.0633914  
H77      H      0.562790000000     0.021050000000     0.677810000000     0.0508644  
H78      H      0.452560000000     0.948300000000     0.633940000000     0.0640488  
H79      H      0.488220000000     0.941070000000     0.826560000000     0.0316403  
H80      H      0.345350000000     0.999630000000     0.639780000000     0.176857   
H81      H      0.467960000000     0.075840000000     0.272240000000     0.061569   
H82      H      0.578870000000     0.030820000000     0.166890000000     0.0426927  
H83      H      0.456640000000     0.939600000000     0.318600000000     0.0329951  
H84      H      0.526390000000     0.937310000000     0.275750000000     0.0455454  
H85      H      0.565630000000     0.966870000000     0.216550000000     0.0450032  
H86      H      0.442180000000     0.051020000000     0.209660000000     0.0532652  
H87      H      0.443500000000     0.065650000000     0.352310000000     0.0415164  
H88      H      0.577490000000     0.979030000000     0.133840000000     0.0392732  
H89      H      0.553060000000     0.980450000000     0.310750000000     0.0534567  
H90      H      0.444670000000     0.999940000000     0.178230000000     0.0493693  
H91      H      0.503610000000     0.930830000000     0.356830000000     0.0387223  
H92      H      0.514660000000     0.065780000000     0.308750000000     0.0604438  
H93      H      0.518930000000     0.945550000000     0.182800000000     0.0506503  
H94      H      0.457090000000     0.062160000000     0.126780000000     0.060016   
H95      H      0.420110000000     0.022390000000     0.315800000000     0.0311911  
H96      H      0.502180000000     0.153990000000     0.204840000000     0.179671   
H97      H      0.981550000000     0.432250000000     0.780710000000     0.0489046  
H98      H      0.027270000000     0.578450000000     0.675360000000     0.0390584  
H99      H      0.088830000000     0.511940000000     0.832280000000     0.0304008  
H100     H      0.051290000000     0.564970000000     0.780040000000     0.0502573  
H101     H      0.081410000000     0.533820000000     0.721420000000     0.0474082  
H102     H      0.948000000000     0.466690000000     0.719090000000     0.0499017  
H103     H      0.994670000000     0.426650000000     0.864110000000     0.0414643  
H104     H      0.071020000000     0.555130000000     0.640070000000     0.0380761  
H105     H      0.999470000000     0.560930000000     0.810450000000     0.0632233  
H106     H      0.992820000000     0.441870000000     0.685770000000     0.057385   
H107     H      0.062780000000     0.557430000000     0.863940000000     0.0420722  
H108     H      0.954630000000     0.478490000000     0.811510000000     0.06004    
H109     H      0.073870000000     0.485130000000     0.686170000000     0.0619167  
H110     H      0.944170000000     0.482740000000     0.635270000000     0.0628671  
H111     H      0.046250000000     0.430890000000     0.831410000000     0.032296   
H112     H      0.922860000000     0.592240000000     0.721890000000     0.178742   
H113     H      0.989940000000     0.435290000000     0.222390000000     0.0606264  
H114     H      0.087210000000     0.486940000000     0.334000000000     0.0429541  
H115     H      0.975490000000     0.567660000000     0.168620000000     0.0322132  
H116     H      0.040720000000     0.576510000000     0.217890000000     0.0477762  
H117     H      0.077520000000     0.549540000000     0.281270000000     0.0472777  
H118     H      0.955600000000     0.463230000000     0.280290000000     0.0543057  
H119     H      0.976200000000     0.439340000000     0.138640000000     0.0386164  
H120     H      0.082890000000     0.539900000000     0.364990000000     0.041202   
H121     H      0.073070000000     0.533720000000     0.187520000000     0.0537966  
H122     H      0.954090000000     0.515790000000     0.309460000000     0.0548937  
H123     H      0.025400000000     0.578440000000     0.134850000000     0.0386148  
H124     H      0.040200000000     0.446000000000     0.190990000000     0.0601387  
H125     H      0.027750000000     0.570820000000     0.310330000000     0.0615806  
H126     H      0.962190000000     0.457310000000     0.365470000000     0.0608545  
H127     H      0.944530000000     0.481280000000     0.169960000000     0.028689   
H128     H      0.010840000000     0.359840000000     0.298300000000     0.179691   
H129     H      0.195520000000     0.972670000000     0.446460000000     0.0574561  
H130     H      0.312380000000     0.073450000000     0.479900000000     0.0446214  
H131     H      0.149820000000     0.977990000000     0.581750000000     0.030696   
H132     H      0.199500000000     0.043840000000     0.578110000000     0.0464031  
H133     H      0.262350000000     0.073490000000     0.544870000000     0.0470859  
H134     H      0.254210000000     0.941140000000     0.474630000000     0.0449097  
H135     H      0.112460000000     0.960340000000     0.457540000000     0.0390487  
H136     H      0.345120000000     0.074840000000     0.531480000000     0.0410972  
H137     H      0.167190000000     0.070180000000     0.532890000000     0.0544628  
H138     H      0.283590000000     0.944040000000     0.526800000000     0.0499156  
H139     H      0.117300000000     0.029940000000     0.587070000000     0.0382805  
H140     H      0.165160000000     0.024740000000     0.451990000000     0.0624129  
H141     H      0.290590000000     0.025230000000     0.571020000000     0.0536485  
H142     H      0.339480000000     0.942140000000     0.470070000000     0.0648924  
H143     H      0.145870000000     0.934360000000     0.501590000000     0.0283338  
H144     H      0.337780000000     0.983130000000     0.357890000000     0.178575   
H145     H      0.699040000000     0.075230000000     0.463790000000     0.056137   
H146     H      0.807110000000     0.049120000000     0.574890000000     0.0438537  
H147     H      0.650940000000     0.940240000000     0.474440000000     0.0299086  
H148     H      0.697580000000     0.946900000000     0.541690000000     0.0454166  
H149     H      0.757140000000     0.983410000000     0.575440000000     0.0457721  
H150     H      0.761060000000     0.047020000000     0.440190000000     0.0452762  
H151     H      0.616690000000     0.064520000000     0.448050000000     0.0385289  
H152     H      0.838870000000     0.997410000000     0.583970000000     0.0386372  
H153     H      0.664620000000     0.993990000000     0.564060000000     0.0536601  
H154     H      0.789470000000     0.994440000000     0.447740000000     0.0467748  
H155     H      0.615760000000     0.938360000000     0.524560000000     0.0374581  
H156     H      0.666110000000     0.073370000000     0.514210000000     0.0609063  
H157     H      0.789420000000     0.954080000000     0.531970000000     0.0511232  
H158     H      0.846050000000     0.051080000000     0.448070000000     0.062567   
H159     H      0.650670000000     0.018310000000     0.426690000000     0.0278826  
H160     H      0.771780000000     0.145450000000     0.521630000000     0.179054   
H161     H      0.937900000000     0.792040000000     0.450690000000     0.0550791  
H162     H      0.055420000000     0.690280000000     0.473780000000     0.0432619  
H163     H      0.941860000000     0.838590000000     0.583530000000     0.0302572  
H164     H      0.008080000000     0.789700000000     0.581920000000     0.0462573  
H165     H      0.049500000000     0.734820000000     0.543330000000     0.0462699  
H166     H      0.918950000000     0.725330000000     0.472170000000     0.0461585  
H167     H      0.926480000000     0.876400000000     0.460110000000     0.0379661  
H168     H      0.065920000000     0.655440000000     0.523030000000     0.0389492  
H169     H      0.035140000000     0.823440000000     0.537990000000     0.0542132  
H170     H      0.925650000000     0.693990000000     0.523000000000     0.0505205  
H171     H      0.992440000000     0.872470000000     0.591080000000     0.0377914  
H172     H      0.989600000000     0.823110000000     0.453640000000     0.0618951  
H173     H      0.007470000000     0.696660000000     0.567180000000     0.0544356  
H174     H      0.933350000000     0.640110000000     0.464310000000     0.0639903  
H175     H      0.900780000000     0.842720000000     0.504180000000     0.0279101  
H176     H      0.003300000000     0.726200000000     0.377630000000     0.177597   
H177     H      0.994080000000     0.234700000000     0.589450000000     0.0605764  
H178     H      0.090820000000     0.348060000000     0.540070000000     0.0446547  
H179     H      0.991680000000     0.183360000000     0.453340000000     0.0369112  
H180     H      0.065250000000     0.220700000000     0.458780000000     0.0481118  
H181     H      0.092420000000     0.288560000000     0.483430000000     0.0483855  
H182     H      0.959630000000     0.287270000000     0.550700000000     0.055602   
H183     H      0.963690000000     0.155410000000     0.579460000000     0.0421612  
H184     H      0.091380000000     0.374050000000     0.484570000000     0.0443204  
H185     H      0.082320000000     0.185740000000     0.506270000000     0.0537338  
H186     H      0.964150000000     0.311810000000     0.496200000000     0.0541006  
H187     H      0.035970000000     0.140890000000     0.452610000000     0.0392637  
H188     H      0.037810000000     0.193530000000     0.583380000000     0.058242   
H189     H      0.044910000000     0.312310000000     0.452460000000     0.0603317  
H190     H      0.960880000000     0.373270000000     0.549250000000     0.0606755  
H191     H      0.946030000000     0.192490000000     0.534130000000     0.0373812  
H192     H      0.995340000000     0.319810000000     0.658650000000     0.178069   
N1       N      0.881820000000     0.496170000000     0.986960000000    -0.166698   
N2       N      0.646540000000     0.522430000000     0.021290000000    -0.179212   
N3       N      0.146520000000     0.504150000000     0.012920000000    -0.166771   
N4       N      0.381890000000     0.498900000000     0.034140000000    -0.177948   
N5       N      0.499560000000     0.878710000000     0.002160000000    -0.166722   
N6       N      0.508340000000     0.645350000000     0.027940000000    -0.179704   
N7       N      0.519180000000     0.376950000000     0.023930000000    -0.16634    
N8       N      0.536650000000     0.143840000000     0.984470000000    -0.178844   
N9       N      0.483520000000     0.014300000000     0.624840000000    -0.166723   
N10      N      0.516890000000     0.997910000000     0.860740000000    -0.177057   
N11      N      0.519660000000     0.023890000000     0.126310000000    -0.164951   
N12      N      0.472340000000     0.997760000000     0.358730000000    -0.17748    
N13      N      0.004990000000     0.523240000000     0.634110000000    -0.166382   
N14      N      0.030120000000     0.491210000000     0.868120000000    -0.178306   
N15      N      0.024910000000     0.494950000000     0.369430000000    -0.1641     
N16      N      0.999090000000     0.509470000000     0.132590000000    -0.179032   
N17      N      0.346490000000     0.011150000000     0.494460000000    -0.165289   
N18      N      0.110570000000     0.993550000000     0.523340000000    -0.17876    
N19      N      0.846790000000     0.029120000000     0.517930000000    -0.166538   
N20      N      0.612060000000     0.000390000000     0.484700000000    -0.179162   
N21      N      0.001980000000     0.643770000000     0.488670000000    -0.166171   
N22      N      0.959070000000     0.878710000000     0.525980000000    -0.179078   
N23      N      0.028140000000     0.378290000000     0.521030000000    -0.16403    
N24      N      0.996180000000     0.144570000000     0.514200000000    -0.176722   
Ni1      Ni     0.978150000000     0.013320000000     0.560430000000     1.00222    
Ni2      Ni     0.979310000000     0.009630000000     0.479710000000     0.992191   
Ni3      Ni     0.055030000000     0.515220000000     0.504090000000     1.00464    
Ni4      Ni     0.974920000000     0.505800000000     0.499240000000     1.00937    
Ni5      Ni     0.477890000000     0.965410000000     0.494160000000     1.00263    
Ni6      Ni     0.480830000000     0.046540000000     0.489230000000     0.997496   
Ni7      Ni     0.478350000000     0.016890000000     0.993410000000     1.00002    
Ni8      Ni     0.558080000000     0.005650000000     0.993570000000     1.00161    
Ni9      Ni     0.014650000000     0.459650000000     0.002990000000     1.00661    
Ni10     Ni     0.013750000000     0.541090000000     0.997500000000     1.00335    
Ni11     Ni     0.516040000000     0.510700000000     0.067450000000     1.00012    
Ni12     Ni     0.512110000000     0.511700000000     0.986340000000     1.00876    
O1       O      0.973920000000     0.947670000000     0.560480000000    -0.450151   
O2       O      0.982310000000     0.078730000000     0.554660000000    -0.448189   
O3       O      0.913400000000     0.017340000000     0.556600000000    -0.450283   
O4       O      0.043000000000     0.009050000000     0.558840000000    -0.451791   
O5       O      0.043050000000     0.996130000000     0.484150000000    -0.447073   
O6       O      0.915490000000     0.023380000000     0.481110000000    -0.443161   
O7       O      0.992900000000     0.074010000000     0.479760000000    -0.445409   
O8       O      0.965490000000     0.945520000000     0.485190000000    -0.44826    
O9       O      0.047750000000     0.520140000000     0.568850000000    -0.447364   
O10      O      0.056780000000     0.510750000000     0.438940000000    -0.446143   
O11      O      0.045650000000     0.579770000000     0.499430000000    -0.452242   
O12      O      0.059110000000     0.449490000000     0.508700000000    -0.442348   
O13      O      0.983920000000     0.441860000000     0.510160000000    -0.448902   
O14      O      0.971330000000     0.571060000000     0.489180000000    -0.441557   
O15      O      0.982760000000     0.495950000000     0.435120000000    -0.446791   
O16      O      0.972510000000     0.514860000000     0.563740000000    -0.442515   
O17      O      0.480000000000     0.964060000000     0.428900000000    -0.447509   
O18      O      0.475700000000     0.972450000000     0.559090000000    -0.445588   
O19      O      0.413090000000     0.970480000000     0.491500000000    -0.442674   
O20      O      0.542980000000     0.966000000000     0.496180000000    -0.450759   
O21      O      0.545300000000     0.040840000000     0.481650000000    -0.449328   
O22      O      0.416090000000     0.046510000000     0.496950000000    -0.445349   
O23      O      0.488470000000     0.047470000000     0.554120000000    -0.447828   
O24      O      0.472900000000     0.039900000000     0.424710000000    -0.448028   
O25      O      0.490220000000     0.080740000000     0.982970000000    -0.448429   
O26      O      0.472120000000     0.952290000000     0.004010000000    -0.447786   
O27      O      0.482460000000     0.027120000000     0.057730000000    -0.448755   
O28      O      0.479840000000     0.005740000000     0.929020000000    -0.447659   
O29      O      0.555370000000     0.005640000000     0.928240000000    -0.446887   
O30      O      0.555150000000     0.006460000000     0.058870000000    -0.447188   
O31      O      0.546130000000     0.941080000000     0.993640000000    -0.446946   
O32      O      0.564400000000     0.071020000000     0.993500000000    -0.448478   
O33      O      0.018730000000     0.457940000000     0.937860000000    -0.448369   
O34      O      0.009300000000     0.466790000000     0.067750000000    -0.449974   
O35      O      0.950100000000     0.460830000000     0.998780000000    -0.44464    
O36      O      0.079720000000     0.463950000000     0.006630000000    -0.449349   
O37      O      0.077800000000     0.540260000000     0.007610000000    -0.442321   
O38      O      0.949160000000     0.536330000000     0.987800000000    -0.447197   
O39      O      0.004890000000     0.542810000000     0.062140000000    -0.449984   
O40      O      0.023990000000     0.533950000000     0.933350000000    -0.447255   
O41      O      0.520440000000     0.444970000000     0.063530000000    -0.446656   
O42      O      0.511290000000     0.576460000000     0.065710000000    -0.449195   
O43      O      0.451270000000     0.506940000000     0.068080000000    -0.451877   
O44      O      0.580580000000     0.514560000000     0.061690000000    -0.453331   
O45      O      0.577140000000     0.517190000000     0.985980000000    -0.449557   
O46      O      0.447360000000     0.505980000000     0.992320000000    -0.446187   
O47      O      0.508370000000     0.576960000000     0.989910000000    -0.454336   
O48      O      0.516090000000     0.446420000000     0.987840000000    -0.450666   
O49      O      0.872670000000     0.389890000000     0.952150000000    -0.336834   
O50      O      0.810750000000     0.432140000000     0.940380000000    -0.249979   
O51      O      0.215940000000     0.566320000000     0.963260000000    -0.343362   
O52      O      0.160010000000     0.612760000000     0.985190000000    -0.244737   
O53      O      0.529660000000     0.863900000000     0.892740000000    -0.34169    
O54      O      0.476890000000     0.817780000000     0.922080000000    -0.250703   
O55      O      0.414260000000     0.364540000000     0.973140000000    -0.34428    
O56      O      0.437570000000     0.317620000000     0.028300000000    -0.249162   
O57      O      0.375600000000     0.987480000000     0.635200000000    -0.339875   
O58      O      0.404630000000     0.028150000000     0.692490000000    -0.251203   
O59      O      0.489450000000     0.124550000000     0.196500000000    -0.349151   
O60      O      0.539780000000     0.113810000000     0.140970000000    -0.247539   
O61      O      0.941590000000     0.566660000000     0.712460000000    -0.343163   
O62      O      0.903860000000     0.557450000000     0.647340000000    -0.241561   
O63      O      0.997860000000     0.389820000000     0.303920000000    -0.348457   
O64      O      0.046720000000     0.405190000000     0.359690000000    -0.243901   
O65      O      0.341250000000     0.974100000000     0.389440000000    -0.339932   
O66      O      0.281230000000     0.014790000000     0.411890000000    -0.251031   
O67      O      0.777610000000     0.113800000000     0.513590000000    -0.344354   
O68      O      0.843240000000     0.130510000000     0.479690000000    -0.246582   
O69      O      0.994700000000     0.717880000000     0.408370000000    -0.344689   
O70      O      0.967390000000     0.649960000000     0.386970000000    -0.248842   
O71      O      0.986850000000     0.322010000000     0.626860000000    -0.348693   
O72      O      0.038980000000     0.375290000000     0.612400000000    -0.245305   


