data_structure

_audit_creation_method RASPA-1.0
_audit_creation_date 2023-5-22
_audit_author_name 'Poobodin Mano'

_cell_length_a    28.0643
_cell_length_b    29.2905
_cell_length_c    27.5134
_cell_angle_alpha 90
_cell_angle_beta  90
_cell_angle_gamma 89.997
_cell_volume      22616.5

_symmetry_cell_setting          triclinic
_symmetry_space_group_name_Hall 'P 1'
_symmetry_space_group_name_H-M  'P 1'
_symmetry_Int_Tables_number     1

_symmetry_equiv_pos_as_xyz 'x,y,z'

loop_
_atom_site_label
_atom_site_type_symbol
_atom_site_fract_x
_atom_site_fract_y
_atom_site_fract_z
_atom_site_charge
C1       C      0.048090000000     0.031100000000     0.032440000000     0.430002   
C2       C      0.060310000000     0.857530000000     0.022030000000     0.429509   
C3       C      0.143790000000     0.952300000000     0.012840000000     0.430438   
C4       C      0.965220000000     0.939430000000     0.043800000000     0.4294     
C5       C      0.016640000000     0.976620000000     0.540130000000     0.429251   
C6       C      0.991320000000     0.148850000000     0.527150000000     0.429757   
C7       C      0.916170000000     0.050190000000     0.553820000000     0.429784   
C8       C      0.091580000000     0.073370000000     0.511090000000     0.429889   
C9       C      0.009640000000     0.354790000000     0.047290000000     0.430324   
C10      C      0.021210000000     0.528390000000     0.037050000000     0.42945    
C11      C      0.020480000000     0.435670000000     0.948150000000     0.429819   
C12      C      0.010330000000     0.445830000000     0.133170000000     0.431433   
C13      C      0.020290000000     0.648270000000     0.543880000000     0.429274   
C14      C      0.023090000000     0.477140000000     0.508430000000     0.42928    
C15      C      0.024580000000     0.579840000000     0.436430000000     0.43197    
C16      C      0.018830000000     0.546760000000     0.618600000000     0.429289   
C17      C      0.521280000000     0.005350000000     0.119930000000     0.430154   
C18      C      0.582350000000     0.988900000000     0.946010000000     0.431712   
C19      C      0.467870000000     0.007550000000     0.999730000000     0.43091    
C20      C      0.637070000000     0.985880000000     0.063240000000     0.428926   
C21      C      0.477590000000     0.010790000000     0.638780000000     0.432321   
C22      C      0.540200000000     0.016220000000     0.464630000000     0.430417   
C23      C      0.592630000000     0.998550000000     0.583520000000     0.430156   
C24      C      0.423870000000     0.029570000000     0.522560000000     0.429453   
C25      C      0.592620000000     0.942620000000     0.871310000000     0.0152386  
C26      C      0.463640000000     0.049090000000     0.717540000000     0.0169255  
C27      C      0.454090000000     0.965800000000     0.711270000000     0.0155937  
C28      C      0.507600000000     0.045860000000     0.749980000000    -0.100037   
C29      C      0.550100000000     0.946530000000     0.836520000000    -0.099708   
C30      C      0.495890000000     0.956290000000     0.745710000000    -0.100053   
C31      C      0.544780000000     0.993380000000     0.811890000000     0.0168796  
C32      C      0.514740000000     0.998510000000     0.772760000000     0.0168721  
C33      C      0.608320000000     0.025230000000     0.869420000000     0.0173254  
C34      C      0.565580000000     0.035690000000     0.837030000000    -0.100299   
C35      C      0.488690000000     0.971010000000     0.195500000000     0.0151304  
C36      C      0.569110000000     0.058950000000     0.392080000000     0.0141551  
C37      C      0.568570000000     0.974460000000     0.391940000000     0.0166741  
C38      C      0.541780000000     0.060840000000     0.343590000000    -0.100033   
C39      C      0.518510000000     0.967980000000     0.241930000000    -0.100342   
C40      C      0.537180000000     0.971390000000     0.346920000000    -0.100571   
C41      C      0.525180000000     0.013790000000     0.268020000000     0.0170391  
C42      C      0.537500000000     0.015100000000     0.316560000000     0.016916   
C43      C      0.498910000000     0.054760000000     0.189770000000     0.0154497  
C44      C      0.528240000000     0.056900000000     0.236670000000    -0.100541   
C45      C      0.980290000000     0.422180000000     0.869190000000     0.0159619  
C46      C      0.060500000000     0.545000000000     0.698000000000     0.0149006  
C47      C      0.972390000000     0.536780000000     0.694710000000     0.0143415  
C48      C      0.065850000000     0.503990000000     0.731870000000    -0.100871   
C49      C      0.974910000000     0.458690000000     0.829960000000    -0.100276   
C50      C      0.973520000000     0.496270000000     0.729990000000    -0.100502   
C51      C      0.021240000000     0.470160000000     0.803330000000     0.0167503  
C52      C      0.019960000000     0.492100000000     0.758920000000     0.016849   
C53      C      0.068050000000     0.429950000000     0.872130000000     0.0147203  
C54      C      0.068120000000     0.466010000000     0.831670000000    -0.10018    
C55      C      0.050040000000     0.442300000000     0.213510000000     0.0163847  
C56      C      0.983050000000     0.597550000000     0.359170000000     0.0167937  
C57      C      0.070080000000     0.586670000000     0.359510000000     0.0158127  
C58      C      0.974170000000     0.556720000000     0.325810000000    -0.0999267  
C59      C      0.059710000000     0.487290000000     0.239580000000    -0.100522   
C60      C      0.067630000000     0.544790000000     0.326400000000    -0.100014   
C61      C      0.015120000000     0.507540000000     0.263330000000     0.0167181  
C62      C      0.019160000000     0.537580000000     0.301590000000     0.0168079  
C63      C      0.963220000000     0.456120000000     0.208870000000     0.0151501  
C64      C      0.967280000000     0.501070000000     0.237090000000    -0.100196   
C65      C      0.354130000000     0.079630000000     0.530980000000     0.0137201  
C66      C      0.156740000000     0.063170000000     0.451590000000     0.0143023  
C67      C      0.171290000000     0.104870000000     0.530240000000     0.0142643  
C68      C      0.202120000000     0.034750000000     0.458620000000    -0.102644   
C69      C      0.317880000000     0.099120000000     0.495450000000    -0.102581   
C70      C      0.218240000000     0.079230000000     0.537300000000    -0.101744   
C71      C      0.284830000000     0.061780000000     0.478580000000     0.0191339  
C72      C      0.237470000000     0.060950000000     0.489440000000     0.0189515  
C73      C      0.347100000000     0.002280000000     0.489330000000     0.0133452  
C74      C      0.310080000000     0.022400000000     0.454000000000    -0.103036   
C75      C      0.662400000000     0.947580000000     0.592000000000     0.0149694  
C76      C      0.847200000000     0.055930000000     0.610140000000     0.0131157  
C77      C      0.839390000000     0.016820000000     0.528450000000     0.0136945  
C78      C      0.818060000000     0.017410000000     0.633400000000    -0.10166    
C79      C      0.710210000000     0.958650000000     0.568010000000    -0.10162    
C80      C      0.814210000000     0.976210000000     0.552380000000    -0.102407   
C81      C      0.738230000000     0.993430000000     0.597550000000     0.0182778  
C82      C      0.786880000000     0.993880000000     0.595910000000     0.0180809  
C83      C      0.660930000000     0.022930000000     0.634510000000     0.0151102  
C84      C      0.710720000000     0.034980000000     0.615640000000    -0.101248   
C85      C      0.002680000000     0.899000000000     0.508150000000     0.0139539  
C86      C      0.064330000000     0.719720000000     0.559820000000     0.0136071  
C87      C      0.976720000000     0.721130000000     0.536670000000     0.0136389  
C88      C      0.056180000000     0.759660000000     0.594890000000    -0.102915   
C89      C      0.981970000000     0.856280000000     0.532600000000    -0.101601   
C90      C      0.968890000000     0.761210000000     0.571240000000    -0.102395   
C91      C      0.018630000000     0.833090000000     0.564900000000     0.0173698  
C92      C      0.014610000000     0.788040000000     0.577060000000     0.0188259  
C93      C      0.045090000000     0.911940000000     0.588850000000     0.0148963  
C94      C      0.060140000000     0.861950000000     0.582450000000    -0.103051   
C95      C      0.001060000000     0.224330000000     0.565790000000     0.0145083  
C96      C      0.986080000000     0.410480000000     0.467610000000     0.0139781  
C97      C      0.066680000000     0.403870000000     0.506120000000     0.0149603  
C98      C      0.970930000000     0.364360000000     0.489050000000    -0.1011     
C99      C      0.034100000000     0.261920000000     0.547470000000    -0.102114   
C100     C      0.052030000000     0.360330000000     0.532800000000    -0.101678   
C101     C      0.009050000000     0.288830000000     0.508020000000     0.0176683  
C102     C      0.013040000000     0.335280000000     0.505250000000     0.0174755  
C103     C      0.961310000000     0.218100000000     0.484260000000     0.0127309  
C104     C      0.988910000000     0.260320000000     0.466450000000    -0.100983   
C105     C      0.401860000000     0.978600000000     0.948450000000     0.0147521  
C106     C      0.219780000000     0.983160000000     0.043380000000     0.0138758  
C107     C      0.215710000000     0.945630000000     0.960660000000     0.0138547  
C108     C      0.244730000000     0.024860000000     0.021390000000    -0.102669   
C109     C      0.350940000000     0.967300000000     0.964620000000    -0.101253   
C110     C      0.245050000000     0.984930000000     0.939280000000    -0.102006   
C111     C      0.322490000000     0.009410000000     0.979310000000     0.018775   
C112     C      0.273930000000     0.008630000000     0.978500000000     0.0183855  
C113     C      0.397100000000     0.056050000000     0.986590000000     0.0157798  
C114     C      0.348630000000     0.045200000000     0.009060000000    -0.102356   
C115     C      0.887290000000     0.971430000000     0.022960000000     0.0133736  
C116     C      0.699480000000     0.935080000000     0.094980000000     0.0139682  
C117     C      0.719480000000     0.010620000000     0.052250000000     0.0130385  
C118     C      0.746100000000     0.939000000000     0.123890000000    -0.103833   
C119     C      0.835950000000     0.954610000000     0.020090000000    -0.102923   
C120     C      0.766470000000     0.011730000000     0.080070000000    -0.102645   
C121     C      0.817930000000     0.941680000000     0.069920000000     0.0209503  
C122     C      0.781890000000     0.964020000000     0.092950000000     0.0201963  
C123     C      0.898920000000     0.924380000000     0.100050000000     0.0143521  
C124     C      0.847830000000     0.906150000000     0.095340000000    -0.104053   
C125     C      0.089450000000     0.783470000000     0.054370000000     0.0133955  
C126     C      0.983120000000     0.603270000000     0.023340000000     0.0142908  
C127     C      0.063360000000     0.597660000000     0.064460000000     0.0137354  
C128     C      0.999810000000     0.645230000000     0.994650000000    -0.102075   
C129     C      0.060870000000     0.741150000000     0.069170000000    -0.101554   
C130     C      0.080290000000     0.640330000000     0.037630000000    -0.101929   
C131     C      0.040390000000     0.716540000000     0.025200000000     0.0179677  
C132     C      0.038630000000     0.670050000000     0.022410000000     0.0182663  
C133     C      0.045160000000     0.787140000000     0.974900000000     0.0141913  
C134     C      0.013750000000     0.746730000000     0.989710000000    -0.102269   
C135     C      0.022050000000     0.102850000000     0.993600000000     0.0140012  
C136     C      0.042100000000     0.284370000000     0.083530000000     0.0140818  
C137     C      0.962290000000     0.284070000000     0.041460000000     0.0151694  
C138     C      0.054150000000     0.237860000000     0.061630000000    -0.101833   
C139     C      0.984190000000     0.136160000000     0.012430000000    -0.102722   
C140     C      0.974190000000     0.238740000000     0.016550000000    -0.102797   
C141     C      0.006600000000     0.165760000000     0.051260000000     0.0182873  
C142     C      0.009600000000     0.211990000000     0.046820000000     0.0190083  
C143     C      0.063800000000     0.104090000000     0.075130000000     0.0139043  
C144     C      0.027960000000     0.139460000000     0.093420000000    -0.102328   
H1       H      0.554660000000     0.919080000000     0.809060000000     0.0424181  
H2       H      0.431390000000     0.049590000000     0.741100000000     0.0243578  
H3       H      0.639610000000     0.017920000000     0.845790000000     0.0237935  
H4       H      0.578040000000     0.061210000000     0.810000000000     0.0424647  
H5       H      0.503220000000     0.072490000000     0.778380000000     0.0427424  
H6       H      0.483290000000     0.929900000000     0.771690000000     0.0422089  
H7       H      0.587970000000     0.912300000000     0.895150000000     0.0349761  
H8       H      0.464350000000     0.081670000000     0.696810000000     0.034295   
H9       H      0.537210000000     0.051590000000     0.859590000000     0.0540653  
H10      H      0.525690000000     0.941600000000     0.724160000000     0.0520512  
H11      H      0.617180000000     0.055640000000     0.891860000000     0.0338409  
H12      H      0.420960000000     0.968500000000     0.733320000000     0.024493   
H13      H      0.516930000000     0.939540000000     0.857330000000     0.050893   
H14      H      0.539630000000     0.054280000000     0.727950000000     0.0529632  
H15      H      0.449530000000     0.936610000000     0.685870000000     0.034951   
H16      H      0.625430000000     0.937120000000     0.849360000000     0.0247877  
H17      H      0.499780000000     0.942920000000     0.265420000000     0.0424257  
H18      H      0.607950000000     0.059630000000     0.383980000000     0.0260808  
H19      H      0.460750000000     0.059800000000     0.199400000000     0.0249167  
H20      H      0.514970000000     0.087300000000     0.256570000000     0.0423502  
H21      H      0.560730000000     0.086540000000     0.321110000000     0.042433   
H22      H      0.551040000000     0.941820000000     0.326010000000     0.0424026  
H23      H      0.491250000000     0.938100000000     0.175560000000     0.0354601  
H24      H      0.560650000000     0.089980000000     0.413690000000     0.0353322  
H25      H      0.566240000000     0.062740000000     0.227120000000     0.051769   
H26      H      0.499940000000     0.963930000000     0.358160000000     0.0528123  
H27      H      0.509390000000     0.083550000000     0.165720000000     0.0353623  
H28      H      0.606470000000     0.974900000000     0.380030000000     0.0246782  
H29      H      0.554240000000     0.954080000000     0.232710000000     0.0510546  
H30      H      0.505180000000     0.073680000000     0.350780000000     0.049896   
H31      H      0.563490000000     0.943330000000     0.414460000000     0.0348325  
H32      H      0.450730000000     0.975930000000     0.205970000000     0.0256188  
H33      H      0.947700000000     0.445080000000     0.804540000000     0.0422701  
H34      H      0.057340000000     0.576320000000     0.720680000000     0.0260353  
H35      H      0.072440000000     0.395730000000     0.855130000000     0.0258923  
H36      H      0.097870000000     0.456260000000     0.807190000000     0.0422434  
H37      H      0.095190000000     0.513280000000     0.756980000000     0.0423278  
H38      H      0.942240000000     0.501300000000     0.754030000000     0.0423239  
H39      H      0.947040000000     0.420730000000     0.891080000000     0.0353705  
H40      H      0.093570000000     0.548420000000     0.676080000000     0.0359671  
H41      H      0.076370000000     0.499820000000     0.847980000000     0.0503178  
H42      H      0.968210000000     0.464150000000     0.709170000000     0.0502403  
H43      H      0.099310000000     0.435780000000     0.896160000000     0.0354689  
H44      H      0.966940000000     0.568570000000     0.716150000000     0.0265189  
H45      H      0.960870000000     0.490440000000     0.846860000000     0.0516509  
H46      H      0.077170000000     0.473770000000     0.710340000000     0.0509584  
H47      H      0.941180000000     0.532870000000     0.670190000000     0.0356897  
H48      H      0.984260000000     0.388470000000     0.850930000000     0.0250656  
H49      H      0.087910000000     0.479650000000     0.266660000000     0.0425054  
H50      H      0.988240000000     0.628380000000     0.336110000000     0.0243515  
H51      H      0.956880000000     0.428070000000     0.235370000000     0.0254429  
H52      H      0.936930000000     0.501110000000     0.262950000000     0.0422806  
H53      H      0.948170000000     0.568550000000     0.298100000000     0.0422852  
H54      H      0.096260000000     0.549310000000     0.298930000000     0.0423618  
H55      H      0.082270000000     0.431910000000     0.192800000000     0.0349406  
H56      H      0.951090000000     0.603700000000     0.382130000000     0.0344563  
H57      H      0.962410000000     0.529960000000     0.211370000000     0.0508498  
H58      H      0.075830000000     0.513960000000     0.348450000000     0.0514821  
H59      H      0.931800000000     0.457730000000     0.184330000000     0.0353382  
H60      H      0.073520000000     0.617640000000     0.336330000000     0.0249042  
H61      H      0.074040000000     0.512410000000     0.213060000000     0.0520794  
H62      H      0.957420000000     0.528990000000     0.347490000000     0.0520615  
H63      H      0.102450000000     0.584560000000     0.382690000000     0.0350956  
H64      H      0.043320000000     0.415540000000     0.241410000000     0.0248339  
H65      H      0.299160000000     0.128920000000     0.511390000000     0.0430222  
H66      H      0.165410000000     0.093440000000     0.428800000000     0.028081   
H67      H      0.328010000000     0.983990000000     0.518940000000     0.0301163  
H68      H      0.285660000000     0.994470000000     0.442990000000     0.0430738  
H69      H      0.216560000000     0.027370000000     0.421840000000     0.0430994  
H70      H      0.243450000000     0.101590000000     0.557090000000     0.0435055  
H71      H      0.380160000000     0.106900000000     0.540160000000     0.0362778  
H72      H      0.130310000000     0.042110000000     0.431500000000     0.035508   
H73      H      0.328400000000     0.035020000000     0.420800000000     0.0496348  
H74      H      0.211540000000     0.049530000000     0.561500000000     0.0528929  
H75      H      0.368970000000     0.976720000000     0.469400000000     0.0340004  
H76      H      0.179340000000     0.138010000000     0.512280000000     0.0253011  
H77      H      0.337350000000     0.112550000000     0.463280000000     0.0514573  
H78      H      0.193300000000     0.001900000000     0.476750000000     0.0511103  
H79      H      0.155590000000     0.112730000000     0.566390000000     0.0347692  
H80      H      0.335360000000     0.070390000000     0.565210000000     0.0267675  
H81      H      0.730220000000     0.926010000000     0.564950000000     0.0425838  
H82      H      0.822540000000     0.084600000000     0.601810000000     0.0263663  
H83      H      0.665070000000     0.006770000000     0.670860000000     0.0246514  
H84      H      0.729350000000     0.054010000000     0.644690000000     0.0430599  
H85      H      0.798260000000     0.030140000000     0.665470000000     0.0426054  
H86      H      0.791630000000     0.959540000000     0.524470000000     0.0426015  
H87      H      0.641960000000     0.924420000000     0.567690000000     0.0343621  
H88      H      0.873800000000     0.068740000000     0.636790000000     0.0352112  
H89      H      0.706720000000     0.058880000000     0.584520000000     0.0534901  
H90      H      0.841110000000     0.950800000000     0.564570000000     0.0503005  
H91      H      0.639970000000     0.054770000000     0.639750000000     0.0336402  
H92      H      0.812070000000     0.040970000000     0.514360000000     0.0291463  
H93      H      0.703880000000     0.972410000000     0.530890000000     0.0510915  
H94      H      0.843430000000     0.991620000000     0.647870000000     0.0514312  
H95      H      0.860110000000     0.003830000000     0.496890000000     0.0355945  
H96      H      0.669200000000     0.929350000000     0.626800000000     0.0267224  
H97      H      0.950530000000     0.866090000000     0.554850000000     0.0492594  
H98      H      0.078400000000     0.733380000000     0.524920000000     0.0293808  
H99      H      0.019780000000     0.914630000000     0.619850000000     0.0324938  
H100     H      0.073100000000     0.850110000000     0.618470000000     0.0432326  
H101     H      0.090110000000     0.778890000000     0.597400000000     0.0429295  
H102     H      0.938290000000     0.781960000000     0.558500000000     0.0424247  
H103     H      0.031720000000     0.888750000000     0.482900000000     0.029755   
H104     H      0.092170000000     0.697150000000     0.575650000000     0.0354644  
H105     H      0.089810000000     0.859690000000     0.555800000000     0.0496835  
H106     H      0.958510000000     0.747550000000     0.607430000000     0.0511676  
H107     H      0.076990000000     0.932610000000     0.598520000000     0.0320206  
H108     H      0.981500000000     0.734820000000     0.499280000000     0.0268837  
H109     H      0.970200000000     0.832760000000     0.503230000000     0.0437698  
H110     H      0.047870000000     0.746180000000     0.631700000000     0.0501275  
H111     H      0.943930000000     0.699860000000     0.536420000000     0.0361703  
H112     H      0.974220000000     0.915420000000     0.486080000000     0.0339034  
H113     H      0.043270000000     0.283340000000     0.579440000000     0.0428717  
H114     H      0.999750000000     0.404310000000     0.430230000000     0.0255843  
H115     H      0.925800000000     0.229710000000     0.497270000000     0.0266922  
H116     H      0.965720000000     0.279760000000     0.441410000000     0.0427912  
H117     H      0.947720000000     0.347250000000     0.462170000000     0.0428068  
H118     H      0.084570000000     0.338920000000     0.536220000000     0.0428421  
H119     H      0.020090000000     0.205120000000     0.594720000000     0.0364145  
H120     H      0.954250000000     0.432850000000     0.464170000000     0.0348484  
H121     H      0.019560000000     0.248320000000     0.444280000000     0.0509806  
H122     H      0.039060000000     0.369090000000     0.569840000000     0.0507004  
H123     H      0.955150000000     0.194660000000     0.453120000000     0.0357568  
H124     H      0.083710000000     0.394380000000     0.471030000000     0.0272802  
H125     H      0.067430000000     0.246760000000     0.532740000000     0.0511533  
H126     H      0.948500000000     0.371000000000     0.521590000000     0.0519597  
H127     H      0.093560000000     0.422130000000     0.528570000000     0.0349456  
H128     H      0.969070000000     0.240310000000     0.582610000000     0.0278114  
H129     H      0.333870000000     0.947330000000     0.935230000000     0.043119   
H130     H      0.247190000000     0.959110000000     0.057480000000     0.0287413  
H131     H      0.391510000000     0.072520000000     0.950590000000     0.0269569  
H132     H      0.328000000000     0.077610000000     0.010370000000     0.0430426  
H133     H      0.266000000000     0.041490000000     0.050390000000     0.0429713  
H134     H      0.266820000000     0.972880000000     0.908220000000     0.0428959  
H135     H      0.423250000000     0.946680000000     0.946860000000     0.0336762  
H136     H      0.197830000000     0.994830000000     0.074660000000     0.0355408  
H137     H      0.353680000000     0.032450000000     0.046780000000     0.0513943  
H138     H      0.219880000000     0.010390000000     0.923830000000     0.0523026  
H139     H      0.416060000000     0.080660000000     0.010550000000     0.0342477  
H140     H      0.240570000000     0.917300000000     0.969680000000     0.0258077  
H141     H      0.352980000000     0.944500000000     0.996850000000     0.0529735  
H142     H      0.217640000000     0.049900000000     0.008770000000     0.0513901  
H143     H      0.190430000000     0.932680000000     0.932780000000     0.0347826  
H144     H      0.400090000000     0.992480000000     0.910860000000     0.0247674  
H145     H      0.813350000000     0.980270000000     0.001440000000     0.0442229  
H146     H      0.704710000000     0.910400000000     0.064690000000     0.0315158  
H147     H      0.899240000000     0.952970000000     0.126690000000     0.0306134  
H148     H      0.834900000000     0.897930000000     0.132420000000     0.0430754  
H149     H      0.757580000000     0.904130000000     0.134300000000     0.0429067  
H150     H      0.793990000000     0.030840000000     0.059400000000     0.0435058  
H151     H      0.901350000000     0.975100000000     0.985380000000     0.0356287  
H152     H      0.671530000000     0.920730000000     0.119270000000     0.0330476  
H153     H      0.847890000000     0.874140000000     0.073640000000     0.0502969  
H154     H      0.760940000000     0.031130000000     0.114350000000     0.050301   
H155     H      0.921860000000     0.896690000000     0.114890000000     0.0333386  
H156     H      0.726590000000     0.999020000000     0.014450000000     0.0270528  
H157     H      0.835060000000     0.923590000000     0.996820000000     0.0517626  
H158     H      0.739580000000     0.958520000000     0.157900000000     0.049847   
H159     H      0.705710000000     0.046140000000     0.049720000000     0.0362211  
H160     H      0.887300000000     0.006080000000     0.039520000000     0.0256899  
H161     H      0.083240000000     0.719420000000     0.092850000000     0.042971   
H162     H      0.963750000000     0.614960000000     0.056350000000     0.0285645  
H163     H      0.075900000000     0.774070000000     0.953470000000     0.0279691  
H164     H      0.004350000000     0.728310000000     0.955740000000     0.0429763  
H165     H      0.967920000000     0.667030000000     0.988900000000     0.0429956  
H166     H      0.107210000000     0.658070000000     0.060130000000     0.0429674  
H167     H      0.098650000000     0.803320000000     0.087500000000     0.0359139  
H168     H      0.957590000000     0.583800000000     0.000380000000     0.0345708  
H169     H      0.980410000000     0.759320000000     0.006930000000     0.0508826  
H170     H      0.099240000000     0.629410000000     0.004100000000     0.0518372  
H171     H      0.023940000000     0.809810000000     0.950800000000     0.0362954  
H172     H      0.050380000000     0.608150000000     0.100990000000     0.0258884  
H173     H      0.030460000000     0.752430000000     0.092100000000     0.0517737  
H174     H      0.013730000000     0.634510000000     0.958590000000     0.0499966  
H175     H      0.094320000000     0.574610000000     0.070210000000     0.0353625  
H176     H      0.123470000000     0.771820000000     0.037750000000     0.0264682  
H177     H      0.970730000000     0.155770000000     0.980780000000     0.0428339  
H178     H      0.027230000000     0.278710000000     0.120520000000     0.0262164  
H179     H      0.095940000000     0.122530000000     0.061950000000     0.0251361  
H180     H      0.044360000000     0.161410000000     0.121630000000     0.0431282  
H181     H      0.077300000000     0.219110000000     0.087370000000     0.0432294  
H182     H      0.940050000000     0.219930000000     0.012250000000     0.0429081  
H183     H      0.004950000000     0.079880000000     0.966560000000     0.0350392  
H184     H      0.075530000000     0.304320000000     0.087950000000     0.0353025  
H185     H      0.998530000000     0.121020000000     0.112030000000     0.0522342  
H186     H      0.989510000000     0.245270000000     0.979930000000     0.050652   
H187     H      0.075110000000     0.082080000000     0.105950000000     0.0347781  
H188     H      0.941830000000     0.276950000000     0.075260000000     0.0287582  
H189     H      0.953850000000     0.116810000000     0.028250000000     0.0499549  
H190     H      0.075870000000     0.243440000000     0.028360000000     0.0521794  
H191     H      0.939090000000     0.304320000000     0.016750000000     0.0342344  
H192     H      0.050340000000     0.122550000000     0.974540000000     0.0283832  
N1       N      0.462360000000     0.009000000000     0.685900000000    -0.180807   
N2       N      0.597240000000     0.985090000000     0.898920000000    -0.180847   
N3       N      0.558050000000     0.016740000000     0.418350000000    -0.179807   
N4       N      0.504310000000     0.010070000000     0.166310000000    -0.179652   
N5       N      0.017460000000     0.540620000000     0.667950000000    -0.179328   
N6       N      0.022830000000     0.430930000000     0.898710000000    -0.179582   
N7       N      0.026130000000     0.589520000000     0.387900000000    -0.180745   
N8       N      0.007730000000     0.447210000000     0.182740000000    -0.180622   
N9       N      0.138440000000     0.078870000000     0.498940000000    -0.179678   
N10      N      0.377310000000     0.038210000000     0.511200000000    -0.179238   
N11      N      0.869630000000     0.040690000000     0.564370000000    -0.179403   
N12      N      0.636970000000     0.990310000000     0.601990000000    -0.180178   
N13      N      0.019650000000     0.694630000000     0.549950000000    -0.179328   
N14      N      0.022150000000     0.930520000000     0.544860000000    -0.180403   
N15      N      0.024290000000     0.431850000000     0.496450000000    -0.179668   
N16      N      0.985960000000     0.195270000000     0.524860000000    -0.179095   
N17      N      0.191230000000     0.960000000000     0.005610000000    -0.179787   
N18      N      0.423640000000     0.013340000000     0.980090000000    -0.180393   
N19      N      0.684040000000     0.979400000000     0.074380000000    -0.179202   
N20      N      0.917470000000     0.941180000000     0.053050000000    -0.179629   
N21      N      0.023950000000     0.574960000000     0.038380000000    -0.179655   
N22      N      0.063280000000     0.811030000000     0.018320000000    -0.179328   
N23      N      0.006230000000     0.308760000000     0.054170000000    -0.179987   
N24      N      0.043680000000     0.077490000000     0.034430000000    -0.180078   
Ni1      Ni     0.061940000000     0.942560000000     0.070290000000     0.994032   
Ni2      Ni     0.047130000000     0.946190000000     0.985240000000     1.00085    
Ni3      Ni     0.013300000000     0.066940000000     0.574910000000     0.998902   
Ni4      Ni     0.994460000000     0.058240000000     0.491030000000     0.995721   
Ni5      Ni     0.973240000000     0.443880000000     0.037770000000     0.997516   
Ni6      Ni     0.057730000000     0.439040000000     0.043680000000     0.997304   
Ni7      Ni     0.063990000000     0.562840000000     0.529030000000     1.00007    
Ni8      Ni     0.979270000000     0.562220000000     0.525450000000     0.993263   
Ni9      Ni     0.558180000000     0.037020000000     0.031040000000     1.00347    
Ni10     Ni     0.545760000000     0.956740000000     0.034830000000     0.990533   
Ni11     Ni     0.502120000000     0.973850000000     0.547510000000     0.996484   
Ni12     Ni     0.515180000000     0.053800000000     0.555930000000     0.997821   
O1       O      0.055000000000     0.007940000000     0.071440000000    -0.449027   
O2       O      0.068680000000     0.877490000000     0.062720000000    -0.448119   
O3       O      0.127750000000     0.950750000000     0.056320000000    -0.456138   
O4       O      0.994640000000     0.935270000000     0.079160000000    -0.452459   
O5       O      0.980480000000     0.944540000000     0.000200000000    -0.451719   
O6       O      0.115330000000     0.948460000000     0.976490000000    -0.448473   
O7       O      0.049240000000     0.881070000000     0.984480000000    -0.455523   
O8       O      0.044860000000     0.010930000000     0.991300000000    -0.456462   
O9       O      0.023240000000     0.002410000000     0.577150000000    -0.454787   
O10      O      0.003040000000     0.130610000000     0.567650000000    -0.458259   
O11      O      0.946270000000     0.058170000000     0.588000000000    -0.447403   
O12      O      0.078520000000     0.075730000000     0.555720000000    -0.449628   
O13      O      0.060840000000     0.065850000000     0.477600000000    -0.45414    
O14      O      0.929750000000     0.049750000000     0.509440000000    -0.456311   
O15      O      0.985170000000     0.123770000000     0.489280000000    -0.445761   
O16      O      0.004270000000     0.993830000000     0.499120000000    -0.449956   
O17      O      0.971660000000     0.378630000000     0.042100000000    -0.452516   
O18      O      0.980450000000     0.508870000000     0.033390000000    -0.45174    
O19      O      0.979760000000     0.439040000000     0.968870000000    -0.453215   
O20      O      0.972210000000     0.448000000000     0.107500000000    -0.45158    
O21      O      0.051060000000     0.442150000000     0.112560000000    -0.454944   
O22      O      0.058770000000     0.435920000000     0.973730000000    -0.449934   
O23      O      0.059200000000     0.504400000000     0.041210000000    -0.452234   
O24      O      0.050620000000     0.374110000000     0.047790000000    -0.452357   
O25      O      0.060230000000     0.627130000000     0.541240000000    -0.452625   
O26      O      0.062130000000     0.498440000000     0.516940000000    -0.452783   
O27      O      0.063410000000     0.574380000000     0.460360000000    -0.452772   
O28      O      0.059060000000     0.551620000000     0.597240000000    -0.453843   
O29      O      0.979990000000     0.548880000000     0.594000000000    -0.449433   
O30      O      0.984220000000     0.576040000000     0.457780000000    -0.453255   
O31      O      0.983140000000     0.498330000000     0.510300000000    -0.450221   
O32      O      0.981030000000     0.626300000000     0.539220000000    -0.451769   
O33      O      0.536730000000     0.040420000000     0.096980000000    -0.453512   
O34      O      0.578780000000     0.028530000000     0.965440000000    -0.455237   
O35      O      0.493540000000     0.042570000000     0.009490000000    -0.454022   
O36      O      0.622100000000     0.025910000000     0.052170000000    -0.45358    
O37      O      0.608920000000     0.951450000000     0.060810000000    -0.450696   
O38      O      0.483750000000     0.967200000000     0.007660000000    -0.45108    
O39      O      0.570810000000     0.953090000000     0.970120000000    -0.451111   
O40      O      0.521470000000     0.965980000000     0.099410000000    -0.450068   
O41      O      0.479230000000     0.974220000000     0.613200000000    -0.453053   
O42      O      0.526080000000     0.978380000000     0.482900000000    -0.455298   
O43      O      0.566030000000     0.965050000000     0.570600000000    -0.451236   
O44      O      0.439130000000     0.988280000000     0.524520000000    -0.449376   
O45      O      0.451480000000     0.062810000000     0.533580000000    -0.454514   
O46      O      0.577640000000     0.039710000000     0.579670000000    -0.452818   
O47      O      0.538090000000     0.053140000000     0.489780000000    -0.448915   
O48      O      0.491370000000     0.048920000000     0.620790000000    -0.45397    


