data_structure

_audit_creation_method RASPA-1.0
_audit_creation_date 2023-5-23
_audit_author_name 'Poobodin Mano'

_cell_length_a    29.8546
_cell_length_b    29.3466
_cell_length_c    27.8061
_cell_angle_alpha 90
_cell_angle_beta  90
_cell_angle_gamma 89.997
_cell_volume      24361.8

_symmetry_cell_setting          triclinic
_symmetry_space_group_name_Hall 'P 1'
_symmetry_space_group_name_H-M  'P 1'
_symmetry_Int_Tables_number     1

_symmetry_equiv_pos_as_xyz 'x,y,z'

loop_
_atom_site_label
_atom_site_type_symbol
_atom_site_fract_x
_atom_site_fract_y
_atom_site_fract_z
_atom_site_charge
C1       C      0.002770000000     0.099090000000     0.044670000000     0.442271   
C2       C      0.000170000000     0.926950000000     0.020750000000     0.441554   
C3       C      0.086500000000     0.011190000000     0.033390000000     0.442807   
C4       C      0.916040000000     0.014180000000     0.031770000000     0.443286   
C5       C      0.982960000000     0.909460000000     0.520910000000     0.441916   
C6       C      0.002820000000     0.079760000000     0.549710000000     0.441786   
C7       C      0.908150000000     0.005140000000     0.531900000000     0.440901   
C8       C      0.077660000000     0.984120000000     0.538830000000     0.44078    
C9       C      0.990360000000     0.430620000000     0.063670000000     0.442039   
C10      C      0.990440000000     0.595090000000     0.004850000000     0.441912   
C11      C      0.992700000000     0.485180000000     0.947400000000     0.442008   
C12      C      0.988150000000     0.540590000000     0.121150000000     0.441779   
C13      C      0.991050000000     0.580460000000     0.497870000000     0.441677   
C14      C      0.995350000000     0.416610000000     0.558460000000     0.441669   
C15      C      0.991910000000     0.469870000000     0.441780000000     0.441148   
C16      C      0.994340000000     0.527260000000     0.614880000000     0.441766   
C17      C      0.503140000000     0.970220000000     0.125240000000     0.443453   
C18      C      0.499750000000     0.026990000000     0.952220000000     0.442818   
C19      C      0.416250000000     0.997760000000     0.040070000000     0.443143   
C20      C      0.586690000000     0.999710000000     0.036880000000     0.443291   
C21      C      0.496540000000     0.025700000000     0.624910000000     0.442754   
C22      C      0.490120000000     0.968980000000     0.451960000000     0.44291    
C23      C      0.578410000000     0.002860000000     0.532620000000     0.44063    
C24      C      0.408200000000     0.991770000000     0.544110000000     0.440784   
C25      C      0.455980000000     0.093240000000     0.763850000000    -0.0423609  
C26      C      0.496000000000     0.088680000000     0.684090000000    -0.0167001  
C27      C      0.497240000000     0.095230000000     0.839130000000     0.0135776  
C28      C      0.496330000000     0.093890000000     0.737960000000     0.0142035  
C29      C      0.497880000000     0.089930000000     0.892970000000    -0.0160325  
C30      C      0.537130000000     0.095870000000     0.762980000000    -0.042508   
C31      C      0.537570000000     0.096390000000     0.813220000000    -0.0418205  
C32      C      0.456430000000     0.093780000000     0.814100000000    -0.0420147  
C33      C      0.540020000000     0.903000000000     0.266370000000    -0.0424822  
C34      C      0.504240000000     0.907150000000     0.184320000000    -0.0165358  
C35      C      0.494870000000     0.900880000000     0.339020000000     0.013818   
C36      C      0.501110000000     0.901900000000     0.238070000000     0.014236   
C37      C      0.491370000000     0.906050000000     0.392730000000    -0.0160877  
C38      C      0.459080000000     0.899650000000     0.260570000000    -0.0420063  
C39      C      0.455970000000     0.899260000000     0.310710000000    -0.0422628  
C40      C      0.536920000000     0.902640000000     0.316510000000    -0.0416128  
C41      C      0.033590000000     0.554350000000     0.779260000000    -0.0448519  
C42      C      0.035470000000     0.552480000000     0.688210000000    -0.0190531  
C43      C      0.033820000000     0.484430000000     0.826190000000     0.0163645  
C44      C      0.034020000000     0.529010000000     0.736400000000     0.0169973  
C45      C      0.034820000000     0.461000000000     0.874420000000    -0.0182091  
C46      C      0.034090000000     0.481210000000     0.738800000000    -0.0396584  
C47      C      0.033850000000     0.459080000000     0.783330000000    -0.0443697  
C48      C      0.033590000000     0.532220000000     0.823790000000    -0.0393232  
C49      C      0.029290000000     0.458710000000     0.275670000000    -0.0451431  
C50      C      0.030740000000     0.447330000000     0.365960000000    -0.0191345  
C51      C      0.026670000000     0.534570000000     0.240560000000     0.0172989  
C52      C      0.028900000000     0.477530000000     0.322130000000     0.0176709  
C53      C      0.026260000000     0.564800000000     0.196710000000    -0.0184186  
C54      C      0.027580000000     0.525100000000     0.327450000000    -0.0391507  
C55      C      0.026320000000     0.553390000000     0.287020000000    -0.0448823  
C56      C      0.028350000000     0.487010000000     0.235230000000    -0.0389758  
C57      C      0.272220000000     0.988820000000     0.597930000000    -0.0415468  
C58      C      0.340040000000     0.948040000000     0.564530000000    -0.0173545  
C59      C      0.196430000000     0.964840000000     0.578030000000     0.0142642  
C60      C      0.289980000000     0.954890000000     0.567820000000     0.0142299  
C61      C      0.146430000000     0.968450000000     0.585430000000    -0.017158   
C62      C      0.260540000000     0.926090000000     0.542720000000    -0.0430365  
C63      C      0.214180000000     0.930890000000     0.547970000000    -0.041675   
C64      C      0.225860000000     0.993920000000     0.602790000000    -0.0430011  
C65      C      0.726830000000     0.066960000000     0.531070000000    -0.0430625  
C66      C      0.646560000000     0.046250000000     0.511280000000    -0.0174616  
C67      C      0.789560000000     0.027360000000     0.494000000000     0.0141539  
C68      C      0.696430000000     0.038770000000     0.506530000000     0.0144226  
C69      C      0.839380000000     0.022630000000     0.485930000000    -0.0169609  
C70      C      0.713010000000     0.004760000000     0.475760000000    -0.0416572  
C71      C      0.759180000000     0.998920000000     0.469760000000    -0.0427879  
C72      C      0.772990000000     0.061420000000     0.524700000000    -0.0415651  
C73      C      0.928000000000     0.726030000000     0.496020000000    -0.0427402  
C74      C      0.949030000000     0.647210000000     0.466910000000    -0.0179328  
C75      C      0.966030000000     0.793780000000     0.466430000000     0.014499   
C76      C      0.955060000000     0.698300000000     0.466860000000     0.0154908  
C77      C      0.971130000000     0.844980000000     0.465240000000    -0.0170368  
C78      C      0.986930000000     0.718820000000     0.436640000000    -0.0417361  
C79      C      0.992620000000     0.766100000000     0.436710000000    -0.0432835  
C80      C      0.933080000000     0.773380000000     0.495380000000    -0.0412043  
C81      C      0.055560000000     0.262630000000     0.587460000000    -0.044707   
C82      C      0.037650000000     0.346290000000     0.578920000000    -0.0182737  
C83      C      0.022030000000     0.205380000000     0.535420000000     0.0146221  
C84      C      0.031030000000     0.297120000000     0.564370000000     0.0149519  
C85      C      0.018820000000     0.156670000000     0.518280000000    -0.0172397  
C86      C      0.002740000000     0.285380000000     0.525860000000    -0.0395698  
C87      C      0.997980000000     0.239910000000     0.511860000000    -0.0437042  
C88      C      0.051410000000     0.217240000000     0.572850000000    -0.0410394  
C89      C      0.261730000000     0.945210000000     0.031260000000    -0.0437304  
C90      C      0.344700000000     0.959450000000     0.021340000000    -0.0172007  
C91      C      0.206390000000     0.997350000000     0.998230000000     0.0145335  
C92      C      0.296460000000     0.972610000000     0.013330000000     0.0141317  
C93      C      0.158180000000     0.010060000000     0.989310000000    -0.0169418  
C94      C      0.285780000000     0.011720000000     0.986550000000    -0.0407195  
C95      C      0.241130000000     0.024170000000     0.979360000000    -0.0440157  
C96      C      0.217060000000     0.957230000000     0.023330000000    -0.0413197  
C97      C      0.717410000000     0.015350000000     0.981450000000    -0.0405949  
C98      C      0.658360000000     0.962920000000     0.015630000000    -0.0171427  
C99      C      0.796710000000     0.001650000000     0.994620000000     0.0149411  
C100     C      0.706620000000     0.976320000000     0.008320000000     0.0142662  
C101     C      0.844980000000     0.014630000000     0.986440000000    -0.0171218  
C102     C      0.741260000000     0.949340000000     0.027090000000    -0.0433257  
C103     C      0.785960000000     0.961640000000     0.019860000000    -0.0411887  
C104     C      0.762080000000     0.028080000000     0.974920000000    -0.0439382  
C105     C      0.043290000000     0.790090000000     0.000940000000    -0.0412959  
C106     C      0.005070000000     0.860130000000     0.967070000000    -0.0169953  
C107     C      0.023730000000     0.713920000000     0.973660000000     0.0152128  
C108     C      0.010940000000     0.809100000000     0.970190000000     0.0144073  
C109     C      0.031040000000     0.663040000000     0.974950000000    -0.0172088  
C110     C      0.985670000000     0.780140000000     0.940520000000    -0.043413   
C111     C      0.992260000000     0.733000000000     0.941960000000    -0.0417689  
C112     C      0.049270000000     0.742900000000     0.003050000000    -0.0430824  
C113     C      0.045780000000     0.236820000000     0.066880000000    -0.0413299  
C114     C      0.008400000000     0.165490000000     0.098740000000    -0.0172347  
C115     C      0.024170000000     0.312120000000     0.095100000000     0.0149064  
C116     C      0.013070000000     0.216680000000     0.096360000000     0.014668   
C117     C      0.030640000000     0.363120000000     0.095160000000    -0.0169834  
C118     C      0.986430000000     0.244650000000     0.125720000000    -0.0433732  
C119     C      0.992150000000     0.291920000000     0.125340000000    -0.0416631  
C120     C      0.050940000000     0.284150000000     0.065860000000    -0.0425532  
H1       H      0.498690000000     0.016890000000     0.878760000000     0.104637   
H2       H      0.465050000000     0.103790000000     0.668500000000     0.0429454  
H3       H      0.525090000000     0.106690000000     0.667840000000     0.0420472  
H4       H      0.425010000000     0.091850000000     0.833470000000     0.0396359  
H5       H      0.424210000000     0.091020000000     0.745180000000     0.039796   
H6       H      0.527530000000     0.107450000000     0.908650000000     0.0422562  
H7       H      0.568610000000     0.095700000000     0.743620000000     0.0401797  
H8       H      0.569410000000     0.096480000000     0.831920000000     0.0398849  
H9       H      0.467950000000     0.106390000000     0.909300000000     0.041945   
H10      H      0.501530000000     0.015790000000     0.698240000000     0.104731   
H11      H      0.485000000000     0.978850000000     0.378620000000     0.10499    
H12      H      0.535670000000     0.891480000000     0.170580000000     0.0417165  
H13      H      0.475700000000     0.889750000000     0.166290000000     0.0431018  
H14      H      0.567250000000     0.904890000000     0.337760000000     0.0401762  
H15      H      0.572710000000     0.905460000000     0.249650000000     0.0401371  
H16      H      0.461280000000     0.887920000000     0.406540000000     0.040958   
H17      H      0.428660000000     0.899510000000     0.239330000000     0.040261   
H18      H      0.423210000000     0.898890000000     0.327440000000     0.0399399  
H19      H      0.520710000000     0.890100000000     0.410780000000     0.0433411  
H20      H      0.504350000000     0.980210000000     0.198720000000     0.105223   
H21      H      0.962990000000     0.464990000000     0.883490000000     0.104072   
H22      H      0.037960000000     0.590010000000     0.692930000000     0.0363823  
H23      H      0.065840000000     0.540830000000     0.668630000000     0.0489253  
H24      H      0.033620000000     0.552360000000     0.856450000000     0.0442471  
H25      H      0.033600000000     0.591250000000     0.778330000000     0.0385126  
H26      H      0.037550000000     0.423500000000     0.869580000000     0.0360452  
H27      H      0.034540000000     0.461080000000     0.706140000000     0.0449585  
H28      H      0.034060000000     0.422180000000     0.784260000000     0.0386165  
H29      H      0.065160000000     0.472250000000     0.894330000000     0.0480423  
H30      H      0.963790000000     0.548320000000     0.678010000000     0.103723   
H31      H      0.955130000000     0.560280000000     0.183370000000     0.103519   
H32      H      0.031800000000     0.410890000000     0.355110000000     0.0348888  
H33      H      0.061950000000     0.455050000000     0.386150000000     0.0487608  
H34      H      0.028970000000     0.471820000000     0.199720000000     0.0457805  
H35      H      0.030560000000     0.422140000000     0.270610000000     0.038155   
H36      H      0.025070000000     0.601190000000     0.207750000000     0.0350052  
H37      H      0.027550000000     0.540320000000     0.362960000000     0.0461246  
H38      H      0.025290000000     0.589970000000     0.292080000000     0.0381708  
H39      H      0.057890000000     0.559620000000     0.176360000000     0.0481794  
H40      H      0.959650000000     0.447440000000     0.380170000000     0.103034   
H41      H      0.140920000000     0.981740000000     0.508370000000     0.103511   
H42      H      0.353080000000     0.939690000000     0.600950000000     0.0438416  
H43      H      0.348660000000     0.918790000000     0.540810000000     0.0424409  
H44      H      0.213020000000     0.020140000000     0.626490000000     0.0385308  
H45      H      0.294320000000     0.011070000000     0.618010000000     0.0411036  
H46      H      0.133710000000     0.935720000000     0.600260000000     0.0429433  
H47      H      0.273410000000     0.899410000000     0.519610000000     0.0385787  
H48      H      0.192090000000     0.907830000000     0.528910000000     0.0411071  
H49      H      0.138160000000     0.994960000000     0.612640000000     0.0432473  
H50      H      0.343990000000     0.017460000000     0.536570000000     0.10366    
H51      H      0.844890000000     0.006530000000     0.562350000000     0.103938   
H52      H      0.638890000000     0.075510000000     0.535350000000     0.0423516  
H53      H      0.632710000000     0.054860000000     0.475270000000     0.044246   
H54      H      0.795840000000     0.083920000000     0.543460000000     0.0414152  
H55      H      0.714880000000     0.093670000000     0.554700000000     0.038788   
H56      H      0.846740000000     0.996510000000     0.458010000000     0.042745   
H57      H      0.690150000000     0.982950000000     0.456130000000     0.041492   
H58      H      0.771120000000     0.972580000000     0.445680000000     0.0387679  
H59      H      0.852830000000     0.055330000000     0.471790000000     0.0428216  
H60      H      0.642600000000     0.977070000000     0.539880000000     0.103737   
H61      H      0.975870000000     0.842830000000     0.543690000000     0.103482   
H62      H      0.920730000000     0.636820000000     0.490530000000     0.0469497  
H63      H      0.940590000000     0.636170000000     0.429760000000     0.0388726  
H64      H      0.911380000000     0.794120000000     0.517650000000     0.0411766  
H65      H      0.902700000000     0.711110000000     0.519060000000     0.0396697  
H66      H      0.999890000000     0.855260000000     0.442210000000     0.043751   
H67      H      0.007520000000     0.698200000000     0.413070000000     0.0383346  
H68      H      0.017580000000     0.781050000000     0.413260000000     0.038311   
H69      H      0.940760000000     0.860160000000     0.448530000000     0.0421768  
H70      H      0.021250000000     0.640150000000     0.475880000000     0.102427   
H71      H      0.006570000000     0.136940000000     0.593010000000     0.103022   
H72      H      0.049230000000     0.348320000000     0.616850000000     0.0369292  
H73      H      0.064810000000     0.360770000000     0.556240000000     0.0480453  
H74      H      0.071300000000     0.191370000000     0.590630000000     0.0403937  
H75      H      0.078450000000     0.270910000000     0.616400000000     0.0375774  
H76      H      0.992990000000     0.153080000000     0.489660000000     0.0440034  
H77      H      0.984480000000     0.311350000000     0.506330000000     0.0445233  
H78      H      0.975970000000     0.231810000000     0.482090000000     0.0388983  
H79      H      0.051210000000     0.146750000000     0.501560000000     0.0426342  
H80      H      0.965830000000     0.357250000000     0.583340000000     0.102774   
H81      H      0.148080000000     0.006420000000     0.067070000000     0.103248   
H82      H      0.347700000000     0.930130000000     0.046490000000     0.0409537  
H83      H      0.359120000000     0.948280000000     0.986380000000     0.0451908  
H84      H      0.190770000000     0.935350000000     0.037030000000     0.0417164  
H85      H      0.269130000000     0.914400000000     0.051170000000     0.0381082  
H86      H      0.155520000000     0.044600000000     0.973060000000     0.0414972  
H87      H      0.312050000000     0.032770000000     0.971430000000     0.0419249  
H88      H      0.233730000000     0.054650000000     0.958870000000     0.0381683  
H89      H      0.143650000000     0.985860000000     0.962760000000     0.0442239  
H90      H      0.354340000000     0.026660000000     0.053420000000     0.103607   
H91      H      0.853800000000     0.012660000000     0.064400000000     0.103638   
H92      H      0.644080000000     0.952690000000     0.980290000000     0.0449555  
H93      H      0.655210000000     0.932960000000     0.039900000000     0.0417341  
H94      H      0.769560000000     0.058470000000     0.954320000000     0.0387666  
H95      H      0.691200000000     0.036110000000     0.965760000000     0.0419188  
H96      H      0.859940000000     0.990570000000     0.960030000000     0.0453291  
H97      H      0.733780000000     0.918630000000     0.047150000000     0.0386727  
H98      H      0.812190000000     0.940070000000     0.034220000000     0.0428009  
H99      H      0.847640000000     0.049240000000     0.970380000000     0.0416862  
H100     H      0.648320000000     0.030120000000     0.047680000000     0.103805   
H101     H      0.958940000000     0.654410000000     0.983680000000     0.103453   
H102     H      0.035080000000     0.874760000000     0.949080000000     0.0436644  
H103     H      0.975730000000     0.869410000000     0.944440000000     0.0420589  
H104     H      0.074200000000     0.729080000000     0.027310000000     0.0388934  
H105     H      0.063940000000     0.811800000000     0.023330000000     0.0412997  
H106     H      0.041390000000     0.651390000000     0.938570000000     0.0380529  
H107     H      0.961140000000     0.794010000000     0.915830000000     0.0383311  
H108     H      0.972780000000     0.711360000000     0.918330000000     0.0392385  
H109     H      0.058950000000     0.654030000000     0.999720000000     0.0458592  
H110     H      0.997200000000     0.860470000000     0.045260000000     0.103183   
H111     H      0.958860000000     0.370740000000     0.083110000000     0.103462   
H112     H      0.038770000000     0.151350000000     0.116470000000     0.0439323  
H113     H      0.979330000000     0.155210000000     0.121300000000     0.0432529  
H114     H      0.076230000000     0.298870000000     0.042640000000     0.0390487  
H115     H      0.067400000000     0.215890000000     0.044740000000     0.0414148  
H116     H      0.039040000000     0.374320000000     0.132280000000     0.037452   
H117     H      0.961550000000     0.229900000000     0.149410000000     0.0385727  
H118     H      0.971630000000     0.312790000000     0.148740000000     0.03903    
H119     H      0.059550000000     0.373020000000     0.072150000000     0.0457827  
H120     H      0.002530000000     0.165710000000     0.020310000000     0.103439   
N1       N      0.498820000000     0.041540000000     0.905980000000    -0.219241   
N2       N      0.498280000000     0.040310000000     0.671110000000    -0.219048   
N3       N      0.488540000000     0.954370000000     0.405760000000    -0.219006   
N4       N      0.503900000000     0.955600000000     0.171450000000    -0.219097   
N5       N      0.993490000000     0.470590000000     0.901050000000    -0.218112   
N6       N      0.994530000000     0.542430000000     0.661030000000    -0.217906   
N7       N      0.986490000000     0.555230000000     0.167460000000    -0.218073   
N8       N      0.990780000000     0.454630000000     0.395660000000    -0.218149   
N9       N      0.122820000000     0.978780000000     0.540450000000    -0.218269   
N10      N      0.362870000000     0.989110000000     0.547060000000    -0.218378   
N11      N      0.863010000000     0.010630000000     0.530420000000    -0.218361   
N12      N      0.623720000000     0.005410000000     0.529330000000    -0.21838    
N13      N      0.977240000000     0.864140000000     0.513550000000    -0.218638   
N14      N      0.990450000000     0.623930000000     0.481230000000    -0.218312   
N15      N      0.008460000000     0.125020000000     0.557610000000    -0.218613   
N16      N      0.996170000000     0.372790000000     0.574080000000    -0.218895   
N17      N      0.131850000000     0.009290000000     0.033840000000    -0.219434   
N18      N      0.370860000000     0.997840000000     0.040110000000    -0.219309   
N19      N      0.870650000000     0.013940000000     0.031420000000    -0.219227   
N20      N      0.632040000000     0.000820000000     0.035230000000    -0.219334   
N21      N      0.990050000000     0.638760000000     0.988830000000    -0.218384   
N22      N      0.000180000000     0.881080000000     0.014710000000    -0.218924   
N23      N      0.989920000000     0.386890000000     0.079520000000    -0.218534   
N24      N      0.004040000000     0.144930000000     0.050840000000    -0.218684   
Ni1      Ni     0.000830000000     0.007790000000     0.075260000000     1.00597    
Ni2      Ni     0.001720000000     0.018260000000     0.990100000000     1.00699    
Ni3      Ni     0.990630000000     0.988410000000     0.577690000000     1.00358    
Ni4      Ni     0.995170000000     0.000790000000     0.492980000000     1.00188    
Ni5      Ni     0.950460000000     0.512550000000     0.033190000000     1.00665    
Ni6      Ni     0.030370000000     0.513180000000     0.035370000000     1.00134    
Ni7      Ni     0.033080000000     0.499400000000     0.527390000000     1.00439    
Ni8      Ni     0.953190000000     0.497770000000     0.529250000000     1.00324    
Ni9      Ni     0.501280000000     0.037060000000     0.052870000000     1.00759    
Ni10     Ni     0.501670000000     0.960210000000     0.024610000000     1.00729    
Ni11     Ni     0.496570000000     0.958990000000     0.552310000000     1.00421    
Ni12     Ni     0.490040000000     0.035700000000     0.524550000000     1.00389    
O1       O      0.002620000000     0.072730000000     0.081420000000    -0.453929   
O2       O      0.999170000000     0.943390000000     0.063440000000    -0.454608   
O3       O      0.064990000000     0.006520000000     0.072950000000    -0.455544   
O4       O      0.936730000000     0.009920000000     0.071880000000    -0.455179   
O5       O      0.937670000000     0.018200000000     0.992180000000    -0.455094   
O6       O      0.065700000000     0.017150000000     0.993560000000    -0.455541   
O7       O      0.001480000000     0.953250000000     0.983970000000    -0.454223   
O8       O      0.002000000000     0.082710000000     0.001940000000    -0.454496   
O9       O      0.984240000000     0.924690000000     0.564060000000    -0.454302   
O10      O      0.997340000000     0.053010000000     0.585670000000    -0.454064   
O11      O      0.927000000000     0.996020000000     0.572160000000    -0.453282   
O12      O      0.054520000000     0.981510000000     0.577600000000    -0.452379   
O13      O      0.058680000000     0.991820000000     0.498300000000    -0.453222   
O14      O      0.931400000000     0.009100000000     0.493330000000    -0.452278   
O15      O      0.003250000000     0.064210000000     0.506630000000    -0.453663   
O16      O      0.986760000000     0.936490000000     0.484900000000    -0.453311   
O17      O      0.953100000000     0.450480000000     0.054550000000    -0.454254   
O18      O      0.953120000000     0.574640000000     0.011990000000    -0.454444   
O19      O      0.954830000000     0.492300000000     0.967750000000    -0.453381   
O20      O      0.951410000000     0.532870000000     0.098760000000    -0.453586   
O21      O      0.026010000000     0.534580000000     0.100340000000    -0.454222   
O22      O      0.029420000000     0.491710000000     0.970280000000    -0.454028   
O23      O      0.027780000000     0.574710000000     0.012420000000    -0.453915   
O24      O      0.027670000000     0.451610000000     0.058160000000    -0.454198   
O25      O      0.028860000000     0.561120000000     0.505430000000    -0.455825   
O26      O      0.032070000000     0.437570000000     0.549460000000    -0.454705   
O27      O      0.029500000000     0.478380000000     0.462210000000    -0.454308   
O28      O      0.031350000000     0.520340000000     0.592650000000    -0.453819   
O29      O      0.956730000000     0.520000000000     0.594030000000    -0.453379   
O30      O      0.954950000000     0.475600000000     0.464390000000    -0.454062   
O31      O      0.957500000000     0.436450000000     0.552690000000    -0.453912   
O32      O      0.954230000000     0.559170000000     0.505570000000    -0.452533   
O33      O      0.502620000000     0.013130000000     0.116880000000    -0.455406   
O34      O      0.499960000000     0.055920000000     0.986790000000    -0.453305   
O35      O      0.437190000000     0.033740000000     0.053270000000    -0.45581    
O36      O      0.565390000000     0.035230000000     0.050800000000    -0.45578    
O37      O      0.565700000000     0.963550000000     0.024190000000    -0.455018   
O38      O      0.437610000000     0.962110000000     0.026500000000    -0.455175   
O39      O      0.500410000000     0.984100000000     0.960610000000    -0.456632   
O40      O      0.502890000000     0.941330000000     0.090640000000    -0.45397    
O41      O      0.498740000000     0.982880000000     0.616360000000    -0.455322   
O42      O      0.493980000000     0.940150000000     0.486360000000    -0.453657   
O43      O      0.560330000000     0.965740000000     0.547180000000    -0.453441   
O44      O      0.432390000000     0.957350000000     0.555680000000    -0.452383   
O45      O      0.426280000000     0.028960000000     0.529740000000    -0.453418   
O46      O      0.554220000000     0.037290000000     0.521050000000    -0.452147   
O47      O      0.487780000000     0.011800000000     0.460510000000    -0.455172   
O48      O      0.492740000000     0.054540000000     0.590510000000    -0.453486   


