data_structure

_audit_creation_method RASPA-1.0
_audit_creation_date 2023-5-19
_audit_author_name 'Poobodin Mano'

_cell_length_a    18.458
_cell_length_b    19.6349
_cell_length_c    15.1684
_cell_angle_alpha 89.997
_cell_angle_beta  89.997
_cell_angle_gamma 89.997
_cell_volume      5497.35

_symmetry_cell_setting          triclinic
_symmetry_space_group_name_Hall 'P 1'
_symmetry_space_group_name_H-M  'P 1'
_symmetry_Int_Tables_number     1

_symmetry_equiv_pos_as_xyz 'x,y,z'

loop_
_atom_site_label
_atom_site_type_symbol
_atom_site_fract_x
_atom_site_fract_y
_atom_site_fract_z
_atom_site_charge
C1       C      0.169910000000     0.192650000000     0.125680000000     0.445591   
C2       C      0.380310000000     0.321510000000     0.986700000000     0.443851   
C3       C      0.220120000000     0.369340000000     0.104130000000     0.445765   
C4       C      0.333190000000     0.144970000000     0.006000000000     0.443735   
C5       C      0.391830000000     0.695710000000     0.122690000000     0.440347   
C6       C      0.234350000000     0.881510000000     0.987310000000     0.447227   
C7       C      0.328990000000     0.860950000000     0.195570000000     0.442144   
C8       C      0.296640000000     0.718260000000     0.918000000000     0.446786   
C9       C      0.860470000000     0.250760000000     0.779520000000     0.443383   
C10      C      0.644400000000     0.186560000000     0.970130000000     0.448701   
C11      C      0.705850000000     0.136860000000     0.756470000000     0.444235   
C12      C      0.792910000000     0.300660000000     0.993400000000     0.4441     
C13      C      0.907120000000     0.301670000000     0.411250000000     0.444272   
C14      C      0.694100000000     0.142320000000     0.356290000000     0.446309   
C15      C      0.887990000000     0.120990000000     0.376780000000     0.444041   
C16      C      0.712660000000     0.321200000000     0.390400000000     0.443395   
C17      C      0.473000000000     0.708480000000     0.579840000000     0.444802   
C18      C      0.198000000000     0.730700000000     0.571260000000     0.444499   
C19      C      0.327190000000     0.598360000000     0.515790000000     0.44408    
C20      C      0.345180000000     0.839770000000     0.636760000000     0.445533   
C21      C      0.844430000000     0.713280000000     0.514230000000     0.439941   
C22      C      0.884420000000     0.870030000000     0.251280000000     0.44503    
C23      C      0.745300000000     0.850450000000     0.413950000000     0.442786   
C24      C      0.984510000000     0.731770000000     0.349420000000     0.443398   
C25      C      0.191120000000     0.632840000000     0.266480000000    -0.0274262  
C26      C      0.055600000000     0.643860000000     0.270090000000    -0.0127139  
C27      C      0.253010000000     0.544570000000     0.349460000000     0.0254788  
C28      C      0.123900000000     0.605100000000     0.290170000000     0.00461334 
C29      C      0.321510000000     0.517440000000     0.390190000000    -0.0163924  
C30      C      0.121720000000     0.545830000000     0.341820000000    -0.0382344  
C31      C      0.185850000000     0.515450000000     0.370820000000    -0.0466034  
C32      C      0.255120000000     0.602910000000     0.296210000000    -0.0411781  
C33      C      0.506560000000     0.931930000000     0.638670000000    -0.0386277  
C34      C      0.374320000000     0.961470000000     0.615250000000    -0.0153259  
C35      C      0.594850000000     0.942920000000     0.520750000000     0.0126987  
C36      C      0.450910000000     0.953190000000     0.581700000000     0.0229741  
C37      C      0.672140000000     0.939630000000     0.488440000000    -0.0194961  
C38      C      0.467740000000     0.968200000000     0.493610000000    -0.0433151  
C39      C      0.538930000000     0.962470000000     0.463240000000    -0.045195   
C40      C      0.577850000000     0.926660000000     0.608450000000    -0.0441808  
C41      C      0.719720000000     0.925970000000     0.184400000000    -0.0378005  
C42      C      0.840790000000     0.913770000000     0.108370000000    -0.0162805  
C43      C      0.665820000000     0.037540000000     0.206760000000     0.0218971  
C44      C      0.775070000000     0.955050000000     0.133040000000     0.0158223  
C45      C      0.611520000000     0.082730000000     0.252770000000    -0.01637    
C46      C      0.773830000000     0.025270000000     0.116310000000    -0.034248   
C47      C      0.719210000000     0.065950000000     0.151960000000    -0.033994   
C48      C      0.665580000000     0.966950000000     0.221090000000    -0.0418326  
C49      C      0.918750000000     0.555950000000     0.536310000000    -0.0342473  
C50      C      0.795770000000     0.606770000000     0.579780000000    -0.0157364  
C51      C      0.936080000000     0.433180000000     0.534100000000     0.0198264  
C52      C      0.847080000000     0.547520000000     0.566490000000     0.0168262  
C53      C      0.982300000000     0.372160000000     0.511990000000    -0.0180153  
C54      C      0.820860000000     0.481270000000     0.580510000000    -0.0425871  
C55      C      0.864940000000     0.424720000000     0.564970000000    -0.0406771  
C56      C      0.962810000000     0.499290000000     0.521030000000    -0.0473575  
C57      C      0.535090000000     0.261300000000     0.203350000000    -0.0415192  
C58      C      0.530960000000     0.219250000000     0.045370000000    -0.018199   
C59      C      0.606850000000     0.360250000000     0.245130000000     0.0244345  
C60      C      0.555170000000     0.269790000000     0.114670000000     0.0272753  
C61      C      0.636740000000     0.407930000000     0.314670000000    -0.0142529  
C62      C      0.600180000000     0.324740000000     0.091820000000    -0.0428104  
C63      C      0.625890000000     0.369360000000     0.156340000000    -0.0391084  
C64      C      0.560190000000     0.306440000000     0.267910000000    -0.0367872  
C65      C      0.023610000000     0.136300000000     0.517410000000    -0.0336779  
C66      C      0.964310000000     0.032080000000     0.450650000000    -0.00884624 
C67      C      0.988630000000     0.176910000000     0.662840000000     0.0213464  
C68      C      0.979290000000     0.078680000000     0.527910000000     0.0224811  
C69      C      0.988090000000     0.232120000000     0.732010000000    -0.0173943  
C70      C      0.943390000000     0.068500000000     0.608430000000    -0.0367426  
C71      C      0.948330000000     0.117020000000     0.675450000000    -0.0419696  
C72      C      0.027710000000     0.185350000000     0.584080000000    -0.042578   
C73      C      0.589840000000     0.642810000000     0.394190000000    -0.0404233  
C74      C      0.594830000000     0.731460000000     0.515260000000    -0.016542   
C75      C      0.536380000000     0.668240000000     0.251170000000     0.0192248  
C76      C      0.575660000000     0.709520000000     0.422640000000     0.0328888  
C77      C      0.512150000000     0.645980000000     0.160760000000    -0.019646   
C78      C      0.541640000000     0.755290000000     0.364660000000    -0.0338246  
C79      C      0.522770000000     0.735040000000     0.279550000000    -0.0416399  
C80      C      0.570180000000     0.622250000000     0.309110000000    -0.0439568  
C81      C      0.088410000000     0.751050000000     0.805730000000    -0.0402934  
C82      C      0.077610000000     0.722880000000     0.643760000000    -0.0148962  
C83      C      0.101970000000     0.867650000000     0.857410000000     0.0206353  
C84      C      0.087160000000     0.773570000000     0.717870000000     0.0246331  
C85      C      0.114280000000     0.917550000000     0.931660000000    -0.0166554  
C86      C      0.091330000000     0.843830000000     0.700540000000    -0.0374557  
C87      C      0.099560000000     0.890370000000     0.769660000000    -0.0433978  
C88      C      0.095650000000     0.797640000000     0.874850000000    -0.0361833  
C89      C      0.546200000000     0.045800000000     0.788640000000    -0.0388226  
C90      C      0.605440000000     0.105380000000     0.657800000000    -0.0181371  
C91      C      0.423520000000     0.073480000000     0.834780000000     0.0189408  
C92      C      0.543580000000     0.096260000000     0.722730000000     0.0226051  
C93      C      0.358010000000     0.057690000000     0.890700000000    -0.0197787  
C94      C      0.480270000000     0.135470000000     0.714100000000    -0.0436443  
C95      C      0.420960000000     0.124520000000     0.769970000000    -0.0418785  
C96      C      0.486950000000     0.034800000000     0.844240000000    -0.0435652  
C97      C      0.975120000000     0.347720000000     0.043700000000    -0.0406322  
C98      C      0.860950000000     0.327490000000     0.130620000000    -0.0117276  
C99      C      0.063990000000     0.431850000000     0.089500000000     0.0210448  
C100     C      0.932220000000     0.363070000000     0.117500000000     0.0223075  
C101     C      0.136440000000     0.465900000000     0.077660000000    -0.0150145  
C102     C      0.955420000000     0.413390000000     0.176860000000    -0.0429142  
C103     C      0.020970000000     0.447240000000     0.163100000000    -0.0430896  
C104     C      0.040160000000     0.382290000000     0.029370000000    -0.0356531  
C105     C      0.128530000000     0.017680000000     0.254260000000    -0.039915   
C106     C      0.107980000000     0.144890000000     0.257140000000    -0.0150977  
C107     C      0.235970000000     0.966790000000     0.319750000000     0.0220776  
C108     C      0.152250000000     0.082770000000     0.279600000000     0.0211768  
C109     C      0.282590000000     0.905450000000     0.338180000000    -0.0193006  
C110     C      0.218150000000     0.089390000000     0.325050000000    -0.0370346  
C111     C      0.259630000000     0.031890000000     0.344970000000    -0.0439418  
C112     C      0.170090000000     0.960080000000     0.274170000000    -0.0403126  
C113     C      0.373300000000     0.490690000000     0.929100000000    -0.0367697  
C114     C      0.432700000000     0.386500000000     0.862360000000    -0.0139636  
C115     C      0.284820000000     0.556810000000     0.847390000000     0.0180627  
C116     C      0.379380000000     0.444650000000     0.858480000000     0.0227495  
C117     C      0.240540000000     0.620720000000     0.838750000000    -0.0218366  
C118     C      0.337590000000     0.455190000000     0.782350000000    -0.0395637  
C119     C      0.290580000000     0.510820000000     0.776850000000    -0.0430341  
C120     C      0.325520000000     0.545510000000     0.924170000000    -0.040659   
H1       H      0.317330000000     0.493570000000     0.529260000000     0.0968357  
H2       H      0.057600000000     0.663680000000     0.201480000000     0.0325056  
H3       H      0.007900000000     0.609390000000     0.275140000000     0.0426639  
H4       H      0.306190000000     0.627230000000     0.281560000000     0.0560228  
H5       H      0.193810000000     0.679460000000     0.228430000000     0.0273146  
H6       H      0.322950000000     0.461150000000     0.382310000000     0.0315433  
H7       H      0.070350000000     0.523960000000     0.361110000000     0.0348945  
H8       H      0.183060000000     0.470720000000     0.412490000000     0.0390619  
H9       H      0.370640000000     0.538870000000     0.357910000000     0.0406446  
H10      H      0.095550000000     0.722700000000     0.358240000000     0.10503    
H11      H      0.636510000000     0.865160000000     0.392440000000     0.0988609  
H12      H      0.371160000000     0.008870000000     0.655000000000     0.0323607  
H13      H      0.335140000000     0.966820000000     0.559930000000     0.0399555  
H14      H      0.619840000000     0.910770000000     0.653880000000     0.0377171  
H15      H      0.494950000000     0.919750000000     0.706830000000     0.043006   
H16      H      0.685300000000     0.986700000000     0.451170000000     0.0451744  
H17      H      0.425860000000     0.984400000000     0.448240000000     0.0349982  
H18      H      0.550400000000     0.973430000000     0.394780000000     0.0344284  
H19      H      0.710140000000     0.935480000000     0.545150000000     0.0455914  
H20      H      0.352990000000     0.910010000000     0.738540000000     0.103131   
H21      H      0.609950000000     0.079660000000     0.395510000000     0.0971162  
H22      H      0.825080000000     0.860950000000     0.089980000000     0.0451316  
H23      H      0.868070000000     0.936190000000     0.049800000000     0.0305343  
H24      H      0.624540000000     0.943830000000     0.262330000000     0.0381795  
H25      H      0.719850000000     0.871960000000     0.198730000000     0.0500982  
H26      H      0.602440000000     0.130380000000     0.215130000000     0.0420046  
H27      H      0.816450000000     0.049010000000     0.078000000000     0.0317007  
H28      H      0.720180000000     0.120110000000     0.139150000000     0.0586333  
H29      H      0.558670000000     0.055900000000     0.258470000000     0.02852    
H30      H      0.922300000000     0.958090000000     0.192130000000     0.0990228  
H31      H      0.987800000000     0.367980000000     0.370180000000     0.0999817  
H32      H      0.754940000000     0.607160000000     0.525840000000     0.0439652  
H33      H      0.765360000000     0.599190000000     0.642290000000     0.0313172  
H34      H      0.017780000000     0.507080000000     0.498540000000     0.0383739  
H35      H      0.941260000000     0.605910000000     0.524030000000     0.0454578  
H36      H      0.040630000000     0.386320000000     0.511000000000     0.0294454  
H37      H      0.765760000000     0.473260000000     0.602860000000     0.0386205  
H38      H      0.842910000000     0.374460000000     0.576290000000     0.0544968  
H39      H      0.975660000000     0.331670000000     0.562140000000     0.0420438  
H40      H      0.854840000000     0.686810000000     0.646100000000     0.0987808  
H41      H      0.638330000000     0.383510000000     0.453750000000     0.0978502  
H42      H      0.483400000000     0.190090000000     0.069130000000     0.0457955  
H43      H      0.513700000000     0.245840000000     0.984350000000     0.0530385  
H44      H      0.544050000000     0.298740000000     0.335830000000     0.0404677  
H45      H      0.500260000000     0.219510000000     0.222740000000     0.0344454  
H46      H      0.681830000000     0.439530000000     0.288330000000     0.037507   
H47      H      0.615440000000     0.333520000000     0.023990000000     0.0519388  
H48      H      0.661030000000     0.410890000000     0.136860000000     0.0377515  
H49      H      0.592630000000     0.443290000000     0.334490000000     0.0288079  
H50      H      0.592790000000     0.127270000000     0.063850000000     0.099614   
H51      H      0.912870000000     0.308670000000     0.685460000000     0.102028   
H52      H      0.015490000000     0.005570000000     0.432890000000     0.0301209  
H53      H      0.924040000000     0.992190000000     0.468140000000     0.0341009  
H54      H      0.060050000000     0.230600000000     0.573230000000     0.0368167  
H55      H      0.052130000000     0.144880000000     0.455990000000     0.0389464  
H56      H      0.997440000000     0.209480000000     0.798270000000     0.0441084  
H57      H      0.909340000000     0.024220000000     0.618330000000     0.0386463  
H58      H      0.919040000000     0.108440000000     0.736190000000     0.0512614  
H59      H      0.032410000000     0.269350000000     0.720030000000     0.0289276  
H60      H      0.957220000000     0.054800000000     0.311790000000     0.0995881  
H61      H      0.406890000000     0.605350000000     0.191190000000     0.09834    
H62      H      0.651500000000     0.715680000000     0.529550000000     0.0374018  
H63      H      0.593270000000     0.787780000000     0.521580000000     0.0439179  
H64      H      0.580860000000     0.570340000000     0.288790000000     0.0348576  
H65      H      0.615540000000     0.606610000000     0.438080000000     0.0402117  
H66      H      0.534500000000     0.681360000000     0.110400000000     0.0471876  
H67      H      0.528200000000     0.806400000000     0.385840000000     0.0426407  
H68      H      0.496370000000     0.771270000000     0.236360000000     0.0481032  
H69      H      0.532640000000     0.594110000000     0.145130000000     0.0323186  
H70      H      0.570180000000     0.680500000000     0.637660000000     0.0998737  
H71      H      0.217490000000     0.965430000000     0.906950000000     0.100753   
H72      H      0.088750000000     0.670030000000     0.666560000000     0.0408663  
H73      H      0.020230000000     0.724340000000     0.621600000000     0.0379536  
H74      H      0.096820000000     0.778850000000     0.941940000000     0.0483629  
H75      H      0.083890000000     0.697320000000     0.820940000000     0.0391211  
H76      H      0.089400000000     0.967540000000     0.915200000000     0.0324756  
H77      H      0.088910000000     0.862680000000     0.633500000000     0.0407344  
H78      H      0.104320000000     0.944130000000     0.754670000000     0.0386394  
H79      H      0.089030000000     0.899140000000     0.993880000000     0.0448455  
H80      H      0.101340000000     0.759910000000     0.512800000000     0.10774    
H81      H      0.403090000000     0.063200000000     0.021890000000     0.102197   
H82      H      0.597750000000     0.069990000000     0.601760000000     0.0379251  
H83      H      0.605110000000     0.157670000000     0.629520000000     0.0487609  
H84      H      0.489980000000     0.994950000000     0.893490000000     0.0366315  
H85      H      0.593410000000     0.013640000000     0.796210000000     0.042081   
H86      H      0.307470000000     0.076100000000     0.858640000000     0.0451374  
H87      H      0.476360000000     0.174070000000     0.663310000000     0.0379769  
H88      H      0.372520000000     0.154940000000     0.761380000000     0.0420168  
H89      H      0.352880000000     0.001580000000     0.897770000000     0.0414624  
H90      H      0.695370000000     0.041900000000     0.698030000000     0.0982141  
H91      H      0.204720000000     0.449410000000     0.191480000000     0.102402   
H92      H      0.870010000000     0.271660000000     0.136060000000     0.0334544  
H93      H      0.834960000000     0.344220000000     0.192900000000     0.0366916  
H94      H      0.072050000000     0.369930000000     0.971640000000     0.0469337  
H95      H      0.957970000000     0.309330000000     0.996840000000     0.0494435  
H96      H      0.152740000000     0.466820000000     0.007010000000     0.0437276  
H97      H      0.922930000000     0.426490000000     0.233870000000     0.0432465  
H98      H      0.038160000000     0.485400000000     0.209860000000     0.0377924  
H99      H      0.133640000000     0.519520000000     0.101090000000     0.0323784  
H100     H      0.793290000000     0.394810000000     0.054880000000     0.101006   
H101     H      0.382490000000     0.931980000000     0.272910000000     0.098333   
H102     H      0.050500000000     0.135660000000     0.275010000000     0.0356038  
H103     H      0.125480000000     0.189860000000     0.296410000000     0.0423045  
H104     H      0.151190000000     0.910390000000     0.253370000000     0.0489054  
H105     H      0.077980000000     0.011570000000     0.218820000000     0.0391418  
H106     H      0.310620000000     0.911860000000     0.402480000000     0.0374026  
H107     H      0.237670000000     0.139100000000     0.344880000000     0.041508   
H108     H      0.310570000000     0.038220000000     0.379450000000     0.0355772  
H109     H      0.249340000000     0.858290000000     0.342480000000     0.0464279  
H110     H      0.068360000000     0.147260000000     0.123090000000     0.101222   
H111     H      0.326620000000     0.685970000000     0.793710000000     0.0622968  
H112     H      0.418180000000     0.345820000000     0.814420000000     0.0416343  
H113     H      0.487190000000     0.405880000000     0.843880000000     0.0305241  
H114     H      0.321990000000     0.580300000000     0.979400000000     0.0495244  
H115     H      0.405750000000     0.484590000000     0.988060000000     0.0433732  
H116     H      0.211470000000     0.622290000000     0.774670000000     0.0399396  
H117     H      0.342020000000     0.420880000000     0.726690000000     0.0374266  
H118     H      0.259780000000     0.518610000000     0.716920000000     0.0451456  
H119     H      0.198860000000     0.621880000000     0.891640000000     0.046195   
H120     H      0.480100000000     0.370020000000     0.990660000000     0.0989497  
N1       N      0.322660000000     0.533710000000     0.484390000000    -0.21849    
N2       N      0.048570000000     0.701070000000     0.331620000000    -0.221096   
N3       N      0.681000000000     0.881410000000     0.429310000000    -0.220056   
N4       N      0.353610000000     0.903340000000     0.670120000000    -0.219461   
N5       N      0.637150000000     0.100200000000     0.341380000000    -0.21986    
N6       N      0.891060000000     0.914190000000     0.183010000000    -0.218403   
N7       N      0.962320000000     0.346170000000     0.424910000000    -0.219301   
N8       N      0.833570000000     0.672270000000     0.585030000000    -0.2203     
N9       N      0.661720000000     0.371030000000     0.393070000000    -0.219535   
N10      N      0.589300000000     0.171390000000     0.025720000000    -0.219973   
N11      N      0.918640000000     0.268540000000     0.729920000000    -0.219968   
N12      N      0.937640000000     0.069800000000     0.373470000000    -0.217314   
N13      N      0.432830000000     0.644980000000     0.157730000000    -0.218539   
N14      N      0.546260000000     0.701680000000     0.581510000000    -0.218224   
N15      N      0.192280000000     0.927350000000     0.944110000000    -0.217716   
N16      N      0.125010000000     0.738820000000     0.569090000000    -0.220127   
N17      N      0.366590000000     0.086950000000     0.979010000000    -0.216675   
N18      N      0.675550000000     0.091790000000     0.699770000000    -0.219228   
N19      N      0.191000000000     0.429680000000     0.129680000000    -0.218772   
N20      N      0.812240000000     0.344660000000     0.058100000000    -0.222309   
N21      N      0.337620000000     0.899570000000     0.269060000000    -0.219918   
N22      N      0.112530000000     0.160280000000     0.162830000000    -0.217617   
N23      N      0.289190000000     0.679540000000     0.844560000000    -0.210518   
N24      N      0.435700000000     0.357570000000     0.951130000000    -0.220911   
Ni1      Ni     0.307820000000     0.253530000000     0.123910000000     1.00053    
Ni2      Ni     0.243300000000     0.259580000000     0.987780000000     1.00363    
Ni3      Ni     0.365770000000     0.815460000000     0.025690000000     1.00126    
Ni4      Ni     0.260520000000     0.763550000000     0.087570000000     1.00494    
Ni5      Ni     0.786190000000     0.173820000000     0.906150000000     1.00189    
Ni6      Ni     0.717010000000     0.263460000000     0.841330000000     1.01333    
Ni7      Ni     0.793880000000     0.213350000000     0.461330000000     1.0123     
Ni8      Ni     0.807700000000     0.229690000000     0.306420000000     1.00888    
Ni9      Ni     0.331950000000     0.697370000000     0.648980000000     1.01054    
Ni10     Ni     0.339030000000     0.741240000000     0.502690000000     1.00802    
Ni11     Ni     0.895940000000     0.830730000000     0.428810000000     0.998797   
Ni12     Ni     0.834170000000     0.751610000000     0.335840000000     1.01101    
O1       O      0.226030000000     0.206370000000     0.172170000000    -0.452875   
O2       O      0.384850000000     0.301830000000     0.067000000000    -0.460044   
O3       O      0.264410000000     0.338750000000     0.155630000000    -0.456301   
O4       O      0.347350000000     0.168790000000     0.082790000000    -0.458285   
O5       O      0.288860000000     0.175760000000     0.954650000000    -0.455108   
O6       O      0.203000000000     0.343550000000     0.029330000000    -0.455449   
O7       O      0.323900000000     0.308570000000     0.940430000000    -0.453959   
O8       O      0.166620000000     0.210000000000     0.044330000000    -0.45561    
O9       O      0.421500000000     0.743180000000     0.077260000000    -0.454517   
O10      O      0.303260000000     0.884270000000     0.978100000000    -0.456394   
O11      O      0.375000000000     0.866510000000     0.132770000000    -0.457378   
O12      O      0.349180000000     0.760820000000     0.922680000000    -0.449314   
O13      O      0.252370000000     0.711000000000     0.982260000000    -0.46023    
O14      O      0.275260000000     0.819830000000     0.189370000000    -0.45738    
O15      O      0.204840000000     0.834340000000     0.033400000000    -0.456373   
O16      O      0.323290000000     0.695280000000     0.135730000000    -0.46138    
O17      O      0.865940000000     0.202160000000     0.835260000000    -0.461766   
O18      O      0.702120000000     0.150670000000     0.973050000000    -0.462896   
O19      O      0.752850000000     0.116000000000     0.812500000000    -0.457274   
O20      O      0.814010000000     0.238330000000     0.995440000000    -0.457542   
O21      O      0.752610000000     0.322470000000     0.931030000000    -0.463986   
O22      O      0.683930000000     0.198710000000     0.756800000000    -0.459513   
O23      O      0.639250000000     0.237550000000     0.917720000000    -0.458394   
O24      O      0.800650000000     0.283300000000     0.770170000000    -0.457907   
O25      O      0.874250000000     0.274320000000     0.476810000000    -0.454546   
O26      O      0.714370000000     0.153740000000     0.435660000000    -0.456174   
O27      O      0.859630000000     0.138360000000     0.450610000000    -0.449061   
O28      O      0.728500000000     0.289180000000     0.461390000000    -0.456862   
O29      O      0.742070000000     0.304860000000     0.316840000000    -0.452883   
O30      O      0.872110000000     0.153070000000     0.305870000000    -0.456232   
O31      O      0.726900000000     0.170130000000     0.291230000000    -0.455851   
O32      O      0.887720000000     0.288480000000     0.332140000000    -0.460802   
O33      O      0.435760000000     0.689890000000     0.647000000000    -0.452241   
O34      O      0.228770000000     0.707510000000     0.640810000000    -0.450338   
O35      O      0.325060000000     0.608130000000     0.599120000000    -0.458983   
O36      O      0.339350000000     0.789470000000     0.689890000000    -0.448869   
O37      O      0.345560000000     0.830420000000     0.553120000000    -0.454554   
O38      O      0.332900000000     0.648740000000     0.462340000000    -0.450853   
O39      O      0.235430000000     0.747580000000     0.503620000000    -0.457609   
O40      O      0.441810000000     0.732790000000     0.511400000000    -0.453149   
O41      O      0.878120000000     0.769690000000     0.524890000000    -0.458524   
O42      O      0.910210000000     0.886550000000     0.326660000000    -0.456483   
O43      O      0.803630000000     0.873160000000     0.449360000000    -0.451867   
O44      O      0.983550000000     0.782950000000     0.401780000000    -0.460732   
O45      O      0.926090000000     0.709840000000     0.313720000000    -0.457002   
O46      O      0.746480000000     0.798390000000     0.363270000000    -0.461997   
O47      O      0.850060000000     0.813880000000     0.240710000000    -0.457556   
O48      O      0.821570000000     0.695220000000     0.437870000000    -0.455027   


