data_structure

_audit_creation_method RASPA-1.0
_audit_creation_date 2023-5-23
_audit_author_name 'Poobodin Mano'

_cell_length_a    29.1837
_cell_length_b    29.1464
_cell_length_c    29.2215
_cell_angle_alpha 90
_cell_angle_beta  90
_cell_angle_gamma 89.9969
_cell_volume      24855.8

_symmetry_cell_setting          triclinic
_symmetry_space_group_name_Hall 'P 1'
_symmetry_space_group_name_H-M  'P 1'
_symmetry_Int_Tables_number     1

_symmetry_equiv_pos_as_xyz 'x,y,z'

loop_
_atom_site_label
_atom_site_type_symbol
_atom_site_fract_x
_atom_site_fract_y
_atom_site_fract_z
_atom_site_charge
C1       C      0.000170000000     0.083980000000     0.987090000000     0.430811   
C2       C      0.000170000000     0.910270000000     0.005270000000     0.431011   
C3       C      0.086710000000     0.997120000000     0.996200000000     0.431799   
C4       C      0.912430000000     0.997130000000     0.996160000000     0.43184    
C5       C      0.995970000000     0.910420000000     0.495860000000     0.430285   
C6       C      0.996040000000     0.084350000000     0.496080000000     0.430467   
C7       C      0.909080000000     0.997420000000     0.495970000000     0.429278   
C8       C      0.083000000000     0.997340000000     0.495970000000     0.42931    
C9       C      0.993610000000     0.409850000000     0.991730000000     0.430379   
C10      C      0.993600000000     0.584410000000     0.000500000000     0.430695   
C11      C      0.993350000000     0.501180000000     0.909050000000     0.430751   
C12      C      0.993350000000     0.493080000000     0.083170000000     0.430956   
C13      C      0.993110000000     0.584570000000     0.494590000000     0.432546   
C14      C      0.993120000000     0.410190000000     0.497610000000     0.432663   
C15      C      0.993110000000     0.495710000000     0.408970000000     0.431139   
C16      C      0.993110000000     0.499040000000     0.583240000000     0.43099    
C17      C      0.499550000000     0.993340000000     0.083220000000     0.431529   
C18      C      0.499430000000     0.001040000000     0.908990000000     0.432014   
C19      C      0.412280000000     0.997160000000     0.996160000000     0.432885   
C20      C      0.586730000000     0.997220000000     0.996050000000     0.432607   
C21      C      0.496100000000     0.999730000000     0.583200000000     0.430775   
C22      C      0.496210000000     0.994690000000     0.409010000000     0.431037   
C23      C      0.583250000000     0.997220000000     0.496160000000     0.431629   
C24      C      0.408870000000     0.997210000000     0.496050000000     0.431484   
C25      C      0.494020000000     0.042870000000     0.657150000000    -0.0204003  
C26      C      0.501050000000     0.960880000000     0.834250000000    -0.0202622  
C27      C      0.497250000000     0.044190000000     0.834680000000    -0.0205298  
C28      C      0.497390000000     0.026320000000     0.786940000000     0.0130066  
C29      C      0.499780000000     0.978820000000     0.787000000000     0.0131914  
C30      C      0.500630000000     0.953470000000     0.746360000000    -0.0660988  
C31      C      0.499290000000     0.959640000000     0.658240000000    -0.0204877  
C32      C      0.495290000000     0.051120000000     0.745800000000    -0.0652964  
C33      C      0.498750000000     0.978190000000     0.705390000000     0.0133631  
C34      C      0.495960000000     0.025660000000     0.704980000000     0.0128556  
C35      C      0.501250000000     0.033510000000     0.157950000000    -0.0202327  
C36      C      0.494220000000     0.951550000000     0.335060000000    -0.0201426  
C37      C      0.499480000000     0.034780000000     0.333960000000    -0.0204899  
C38      C      0.498970000000     0.016220000000     0.286810000000     0.0140808  
C39      C      0.496180000000     0.968740000000     0.287230000000     0.0121211  
C40      C      0.495520000000     0.943280000000     0.246410000000    -0.0648658  
C41      C      0.497460000000     0.950200000000     0.157530000000    -0.0202948  
C42      C      0.500850000000     0.040930000000     0.245850000000    -0.0665075  
C43      C      0.497620000000     0.968080000000     0.205270000000     0.0122959  
C44      C      0.500000000000     0.015570000000     0.205210000000     0.0138682  
C45      C      0.951660000000     0.503880000000     0.834590000000    -0.0202919  
C46      C      0.034770000000     0.501580000000     0.657710000000    -0.0202946  
C47      C      0.951500000000     0.499840000000     0.657800000000    -0.0202463  
C48      C      0.969420000000     0.501490000000     0.705270000000     0.0125887  
C49      C      0.016910000000     0.502010000000     0.705220000000     0.0135871  
C50      C      0.042040000000     0.502400000000     0.746100000000    -0.0659592  
C51      C      0.034940000000     0.502360000000     0.834500000000    -0.0203372  
C52      C      0.944370000000     0.502270000000     0.746190000000    -0.0653836  
C53      C      0.016990000000     0.502780000000     0.787020000000     0.0136052  
C54      C      0.969500000000     0.503170000000     0.787060000000     0.0126031  
C55      C      0.951500000000     0.494850000000     0.334410000000    -0.0202403  
C56      C      0.034940000000     0.491970000000     0.157720000000    -0.0203181  
C57      C      0.951660000000     0.490450000000     0.157630000000    -0.0203084  
C58      C      0.969500000000     0.491240000000     0.205160000000     0.0126181  
C59      C      0.017000000000     0.491630000000     0.205200000000     0.0135931  
C60      C      0.042040000000     0.492110000000     0.246120000000    -0.0659366  
C61      C      0.034780000000     0.493110000000     0.334510000000    -0.0203585  
C62      C      0.944380000000     0.492240000000     0.246020000000    -0.0653547  
C63      C      0.016920000000     0.492590000000     0.286990000000     0.013613   
C64      C      0.969420000000     0.493110000000     0.286940000000     0.0125749  
C65      C      0.157460000000     0.970770000000     0.528080000000    -0.0207421  
C66      C      0.334410000000     0.031190000000     0.471870000000    -0.0206597  
C67      C      0.334370000000     0.963240000000     0.520130000000    -0.0206224  
C68      C      0.286840000000     0.978830000000     0.511000000000     0.0133091  
C69      C      0.286860000000     0.015640000000     0.480970000000     0.0139824  
C70      C      0.245950000000     0.033020000000     0.462730000000    -0.0659597  
C71      C      0.157490000000     0.023820000000     0.463860000000    -0.02083    
C72      C      0.245910000000     0.961480000000     0.529230000000    -0.0655408  
C73      C      0.205030000000     0.013590000000     0.478720000000     0.0139661  
C74      C      0.205010000000     0.980950000000     0.513220000000     0.0132621  
C75      C      0.834620000000     0.970210000000     0.464440000000    -0.0207536  
C76      C      0.657710000000     0.031900000000     0.519300000000    -0.0207451  
C77      C      0.657730000000     0.962580000000     0.473000000000    -0.020689   
C78      C      0.705270000000     0.978480000000     0.481590000000     0.0133488  
C79      C      0.705260000000     0.016080000000     0.510630000000     0.0139926  
C80      C      0.746170000000     0.033910000000     0.528430000000    -0.0659664  
C81      C      0.834620000000     0.024590000000     0.527540000000    -0.0208252  
C82      C      0.746180000000     0.960730000000     0.463710000000    -0.0656482  
C83      C      0.787080000000     0.014070000000     0.512910000000     0.0139464  
C84      C      0.787080000000     0.980660000000     0.479150000000     0.0132899  
C85      C      0.022400000000     0.835900000000     0.463800000000    -0.0206964  
C86      C      0.958970000000     0.659250000000     0.517640000000    -0.020346   
C87      C      0.027730000000     0.658820000000     0.470630000000    -0.0205599  
C88      C      0.012490000000     0.706480000000     0.479730000000     0.0143044  
C89      C      0.975210000000     0.706690000000     0.509130000000     0.0131327  
C90      C      0.958110000000     0.747670000000     0.527480000000    -0.0654916  
C91      C      0.968550000000     0.836030000000     0.527320000000    -0.0204993  
C92      C      0.030630000000     0.747330000000     0.462100000000    -0.0662382  
C93      C      0.978330000000     0.788480000000     0.512160000000     0.0130755  
C94      C      0.011420000000     0.788360000000     0.478130000000     0.014262   
C95      C      0.027760000000     0.335930000000     0.521530000000    -0.0206047  
C96      C      0.968660000000     0.158760000000     0.464630000000    -0.0205206  
C97      C      0.022500000000     0.158840000000     0.528160000000    -0.0206797  
C98      C      0.011520000000     0.206390000000     0.513870000000     0.0142311  
C99      C      0.978430000000     0.206290000000     0.479830000000     0.013129   
C100     C      0.958180000000     0.247110000000     0.464560000000    -0.0655639  
C101     C      0.958990000000     0.335520000000     0.474510000000    -0.0204045  
C102     C      0.030700000000     0.247410000000     0.529940000000    -0.0661709  
C103     C      0.975270000000     0.288090000000     0.482950000000     0.0131733  
C104     C      0.012540000000     0.288280000000     0.512360000000     0.0142913  
C105     C      0.337890000000     0.964250000000     0.970590000000    -0.020633   
C106     C      0.161090000000     0.021180000000     0.030210000000    -0.0206032  
C107     C      0.161090000000     0.973040000000     0.962230000000    -0.020412   
C108     C      0.208610000000     0.981980000000     0.977920000000     0.013241   
C109     C      0.208600000000     0.012230000000     0.014520000000     0.0143464  
C110     C      0.249490000000     0.030860000000     0.031530000000    -0.0660814  
C111     C      0.337890000000     0.030020000000     0.021810000000    -0.0206676  
C112     C      0.249490000000     0.963380000000     0.960910000000    -0.0654536  
C113     C      0.290380000000     0.014720000000     0.012160000000     0.0143793  
C114     C      0.290380000000     0.979520000000     0.980260000000     0.0133191  
C115     C      0.838010000000     0.969060000000     0.965370000000    -0.02054    
C116     C      0.661170000000     0.032500000000     0.018240000000    -0.0205671  
C117     C      0.661170000000     0.961950000000     0.973830000000    -0.020454   
C118     C      0.708690000000     0.978020000000     0.982050000000     0.0131254  
C119     C      0.708690000000     0.016410000000     0.010050000000     0.0142468  
C120     C      0.749580000000     0.034680000000     0.027400000000    -0.0661301  
C121     C      0.837990000000     0.025250000000     0.026880000000    -0.0206979  
C122     C      0.749590000000     0.959710000000     0.964750000000    -0.0654551  
C123     C      0.790480000000     0.014360000000     0.012490000000     0.014188   
C124     C      0.790490000000     0.980000000000     0.979700000000     0.0130549  
C125     C      0.960780000000     0.659190000000     0.027060000000    -0.0205911  
C126     C      0.029820000000     0.835230000000     0.978800000000    -0.0214813  
C127     C      0.975060000000     0.836630000000     0.041460000000    -0.0210263  
C128     C      0.984380000000     0.788560000000     0.026590000000     0.0126118  
C129     C      0.018000000000     0.788060000000     0.993100000000     0.0150503  
C130     C      0.036010000000     0.746980000000     0.976100000000    -0.0667983  
C131     C      0.030060000000     0.658720000000     0.980890000000    -0.0209725  
C132     C      0.962560000000     0.747810000000     0.040350000000    -0.064674   
C133     C      0.016430000000     0.706280000000     0.992210000000     0.0148841  
C134     C      0.978770000000     0.706640000000     0.021100000000     0.0124325  
C135     C      0.975070000000     0.157620000000     0.950880000000    -0.0210012  
C136     C      0.030070000000     0.335540000000     0.011370000000    -0.0208064  
C137     C      0.960800000000     0.335060000000     0.965170000000    -0.0206047  
C138     C      0.978790000000     0.287610000000     0.971160000000     0.012167   
C139     C      0.016440000000     0.287980000000     0.000070000000     0.0151343  
C140     C      0.035990000000     0.247280000000     0.016230000000    -0.066732   
C141     C      0.029790000000     0.159030000000     0.013570000000    -0.0212189  
C142     C      0.962580000000     0.246440000000     0.951940000000    -0.0645411  
C143     C      0.017970000000     0.206200000000     0.999250000000     0.0149727  
C144     C      0.984370000000     0.205680000000     0.965750000000     0.0124618  
H1       H      0.465540000000     0.063990000000     0.841980000000     0.0433101  
H2       H      0.471180000000     0.938250000000     0.841150000000     0.0439575  
H3       H      0.502620000000     0.916380000000     0.746610000000     0.0439526  
H4       H      0.493230000000     0.088200000000     0.745550000000     0.044236   
H5       H      0.461630000000     0.061820000000     0.650620000000     0.0439376  
H6       H      0.531440000000     0.940380000000     0.651380000000     0.0440857  
H7       H      0.527390000000     0.066560000000     0.841150000000     0.0434887  
H8       H      0.533020000000     0.941140000000     0.840610000000     0.0435402  
H9       H      0.469650000000     0.936470000000     0.652180000000     0.0431722  
H10      H      0.523390000000     0.065910000000     0.649560000000     0.0432131  
H11      H      0.469850000000     0.057950000000     0.340000000000     0.0432354  
H12      H      0.461830000000     0.932590000000     0.341580000000     0.043841   
H13      H      0.493460000000     0.906200000000     0.246670000000     0.0441155  
H14      H      0.502820000000     0.078020000000     0.245590000000     0.0440773  
H15      H      0.471370000000     0.056150000000     0.151060000000     0.0440264  
H16      H      0.527610000000     0.927840000000     0.151050000000     0.0434107  
H17      H      0.531630000000     0.054030000000     0.340840000000     0.0441455  
H18      H      0.523590000000     0.928510000000     0.342680000000     0.0431212  
H19      H      0.465760000000     0.930380000000     0.150260000000     0.0432326  
H20      H      0.533210000000     0.053240000000     0.151570000000     0.0436024  
H21      H      0.929650000000     0.530130000000     0.650230000000     0.0428898  
H22      H      0.055100000000     0.532980000000     0.650380000000     0.0441448  
H23      H      0.079130000000     0.502260000000     0.746060000000     0.0441681  
H24      H      0.907280000000     0.502030000000     0.746230000000     0.0440113  
H25      H      0.931490000000     0.535530000000     0.841220000000     0.0439059  
H26      H      0.055660000000     0.471060000000     0.841110000000     0.0444163  
H27      H      0.931100000000     0.468190000000     0.651890000000     0.0441068  
H28      H      0.056680000000     0.471020000000     0.651460000000     0.0430802  
H29      H      0.056480000000     0.533040000000     0.841370000000     0.042784   
H30      H      0.929610000000     0.473570000000     0.841540000000     0.0431871  
H31      H      0.929610000000     0.520740000000     0.150630000000     0.0432159  
H32      H      0.055670000000     0.523260000000     0.151060000000     0.0444218  
H33      H      0.079140000000     0.492240000000     0.246160000000     0.0441544  
H34      H      0.907280000000     0.492480000000     0.245980000000     0.0439959  
H35      H      0.931110000000     0.526520000000     0.340270000000     0.0440982  
H36      H      0.055110000000     0.461730000000     0.341890000000     0.0441661  
H37      H      0.931500000000     0.458780000000     0.151060000000     0.0439172  
H38      H      0.056480000000     0.461280000000     0.150900000000     0.0427888  
H39      H      0.056680000000     0.523680000000     0.340700000000     0.0430871  
H40      H      0.929650000000     0.464580000000     0.342040000000     0.0428973  
H41      H      0.340190000000     0.928240000000     0.506200000000     0.0455836  
H42      H      0.342140000000     0.031430000000     0.434630000000     0.0410544  
H43      H      0.245970000000     0.060190000000     0.437480000000     0.0444837  
H44      H      0.245900000000     0.934310000000     0.554490000000     0.0443422  
H45      H      0.149720000000     0.933510000000     0.525690000000     0.0409501  
H46      H      0.149780000000     0.061090000000     0.466240000000     0.0410038  
H47      H      0.342080000000     0.962990000000     0.557380000000     0.0409648  
H48      H      0.340220000000     0.066190000000     0.485800000000     0.0456304  
H49      H      0.151670000000     0.012350000000     0.428060000000     0.0458876  
H50      H      0.151650000000     0.982250000000     0.563880000000     0.0457867  
H51      H      0.651990000000     0.928010000000     0.487970000000     0.045612   
H52      H      0.649990000000     0.033230000000     0.556520000000     0.0409744  
H53      H      0.746160000000     0.061700000000     0.553010000000     0.0445279  
H54      H      0.746180000000     0.932950000000     0.439140000000     0.0444423  
H55      H      0.842410000000     0.933010000000     0.467560000000     0.0407732  
H56      H      0.842340000000     0.061800000000     0.524400000000     0.040813   
H57      H      0.649950000000     0.961230000000     0.435790000000     0.040899   
H58      H      0.651880000000     0.066470000000     0.504350000000     0.0456738  
H59      H      0.840450000000     0.013850000000     0.563570000000     0.0459098  
H60      H      0.840370000000     0.980980000000     0.428410000000     0.0457926  
H61      H      0.062400000000     0.652580000000     0.485100000000     0.0457795  
H62      H      0.957850000000     0.651300000000     0.554830000000     0.0408529  
H63      H      0.930590000000     0.747800000000     0.552330000000     0.0443142  
H64      H      0.058180000000     0.747200000000     0.437310000000     0.0446605  
H65      H      0.059670000000     0.843160000000     0.466770000000     0.0409078  
H66      H      0.931470000000     0.844280000000     0.524570000000     0.0407984  
H67      H      0.028490000000     0.651260000000     0.433360000000     0.0409803  
H68      H      0.924270000000     0.653880000000     0.502910000000     0.0454787  
H69      H      0.979680000000     0.841390000000     0.563300000000     0.0456499  
H70      H      0.011510000000     0.842150000000     0.427890000000     0.0460634  
H71      H      0.011620000000     0.152570000000     0.564070000000     0.0460862  
H72      H      0.931570000000     0.150510000000     0.467370000000     0.04082    
H73      H      0.930670000000     0.247000000000     0.439720000000     0.0443637  
H74      H      0.058250000000     0.247520000000     0.554750000000     0.0446343  
H75      H      0.028510000000     0.343440000000     0.558810000000     0.0409916  
H76      H      0.957860000000     0.343520000000     0.437330000000     0.0408681  
H77      H      0.059770000000     0.151580000000     0.525170000000     0.040926   
H78      H      0.979790000000     0.153420000000     0.428660000000     0.0456733  
H79      H      0.924300000000     0.340850000000     0.489250000000     0.0454984  
H80      H      0.062420000000     0.342200000000     0.507060000000     0.0457962  
H81      H      0.153260000000     0.935720000000     0.961750000000     0.0396968  
H82      H      0.155370000000     0.006960000000     0.065030000000     0.0460218  
H83      H      0.249490000000     0.056480000000     0.058340000000     0.0443591  
H84      H      0.249500000000     0.937760000000     0.934090000000     0.0441439  
H85      H      0.343630000000     0.928700000000     0.983080000000     0.045695   
H86      H      0.343590000000     0.065580000000     0.009320000000     0.0458031  
H87      H      0.155380000000     0.987250000000     0.927400000000     0.0458547  
H88      H      0.153250000000     0.058500000000     0.030690000000     0.0398266  
H89      H      0.345730000000     0.028710000000     0.059010000000     0.040523   
H90      H      0.345710000000     0.965560000000     0.933380000000     0.0404075  
H91      H      0.655360000000     0.927790000000     0.989710000000     0.0455952  
H92      H      0.653410000000     0.034860000000     0.055400000000     0.0408766  
H93      H      0.749580000000     0.063140000000     0.051190000000     0.0445532  
H94      H      0.749590000000     0.931240000000     0.940960000000     0.0443224  
H95      H      0.845740000000     0.931960000000     0.969580000000     0.0406215  
H96      H      0.845760000000     0.062340000000     0.022690000000     0.0407556  
H97      H      0.653440000000     0.959610000000     0.936660000000     0.0407456  
H98      H      0.655380000000     0.066660000000     0.002340000000     0.0457103  
H99      H      0.843760000000     0.015540000000     0.063210000000     0.0458833  
H100     H      0.843830000000     0.978760000000     0.929050000000     0.0457538  
H101     H      0.986340000000     0.842140000000     0.077350000000     0.0449154  
H102     H      0.067080000000     0.842030000000     0.982850000000     0.0401715  
H103     H      0.063570000000     0.746710000000     0.951300000000     0.0443895  
H104     H      0.934350000000     0.748130000000     0.064380000000     0.0443652  
H105     H      0.959010000000     0.649420000000     0.063780000000     0.0407767  
H106     H      0.031160000000     0.653090000000     0.943280000000     0.0412309  
H107     H      0.938080000000     0.845320000000     0.038700000000     0.0400992  
H108     H      0.020240000000     0.841150000000     0.942450000000     0.0472388  
H109     H      0.064290000000     0.650570000000     0.995470000000     0.0461674  
H110     H      0.926070000000     0.655730000000     0.011810000000     0.0451131  
H111     H      0.926090000000     0.338540000000     0.980400000000     0.0450834  
H112     H      0.031160000000     0.341190000000     0.048970000000     0.0412463  
H113     H      0.063540000000     0.247560000000     0.041030000000     0.0444213  
H114     H      0.934380000000     0.246110000000     0.927880000000     0.0443072  
H115     H      0.938090000000     0.148920000000     0.953620000000     0.0400865  
H116     H      0.067050000000     0.152230000000     0.009540000000     0.0402022  
H117     H      0.959060000000     0.344820000000     0.928450000000     0.0407835  
H118     H      0.064300000000     0.343680000000     0.996800000000     0.0460981  
H119     H      0.020190000000     0.153120000000     0.049920000000     0.0472221  
H120     H      0.986380000000     0.152100000000     0.915000000000     0.0449349  
N1       N      0.496310000000     0.000800000000     0.629660000000    -0.171255   
N2       N      0.499380000000     0.002370000000     0.862520000000    -0.171492   
N3       N      0.499560000000     0.992010000000     0.129690000000    -0.171619   
N4       N      0.496480000000     0.993620000000     0.362550000000    -0.171552   
N5       N      0.993330000000     0.502860000000     0.862590000000    -0.171459   
N6       N      0.993120000000     0.500050000000     0.629710000000    -0.17156    
N7       N      0.993120000000     0.494690000000     0.362500000000    -0.171588   
N8       N      0.993330000000     0.491430000000     0.129620000000    -0.171542   
N9       N      0.129470000000     0.997310000000     0.495970000000    -0.170878   
N10      N      0.362410000000     0.997210000000     0.496010000000    -0.171345   
N11      N      0.862620000000     0.997420000000     0.495970000000    -0.170929   
N12      N      0.629710000000     0.997220000000     0.496170000000    -0.171341   
N13      N      0.995800000000     0.863950000000     0.495780000000    -0.171367   
N14      N      0.993110000000     0.631040000000     0.494040000000    -0.171777   
N15      N      0.993120000000     0.363720000000     0.498140000000    -0.171788   
N16      N      0.995900000000     0.130810000000     0.496160000000    -0.171447   
N17      N      0.365860000000     0.997150000000     0.996190000000    -0.171659   
N18      N      0.133130000000     0.997110000000     0.996210000000    -0.171414   
N19      N      0.865990000000     0.997140000000     0.996140000000    -0.17169    
N20      N      0.633180000000     0.997230000000     0.996030000000    -0.171628   
N21      N      0.994210000000     0.630940000000     0.002320000000    -0.170953   
N22      N      0.002800000000     0.864020000000     0.009760000000    -0.170561   
N23      N      0.002790000000     0.130230000000     0.982600000000    -0.170653   
N24      N      0.994230000000     0.363320000000     0.989910000000    -0.171007   
Ni1      Ni     0.999550000000     0.001900000000     0.036620000000     0.99787    
Ni2      Ni     0.999570000000     0.992350000000     0.955740000000     0.996669   
Ni3      Ni     0.996040000000     0.997350000000     0.536350000000     0.990424   
Ni4      Ni     0.996040000000     0.997420000000     0.455580000000     0.990317   
Ni5      Ni     0.952560000000     0.497130000000     0.996110000000     0.988938   
Ni6      Ni     0.034160000000     0.497130000000     0.996110000000     1.00567    
Ni7      Ni     0.033920000000     0.497380000000     0.496110000000     1.00048    
Ni8      Ni     0.952300000000     0.497380000000     0.496100000000     1.00026    
Ni9      Ni     0.499480000000     0.038080000000     0.998450000000     1.00202    
Ni10     Ni     0.499510000000     0.956300000000     0.993760000000     1.00194    
Ni11     Ni     0.496070000000     0.956390000000     0.497140000000     0.99817    
Ni12     Ni     0.496060000000     0.038040000000     0.495060000000     0.998472   
O1       O      0.004610000000     0.066320000000     0.026900000000    -0.450584   
O2       O      0.994860000000     0.935820000000     0.040680000000    -0.444288   
O3       O      0.065080000000     0.998790000000     0.034330000000    -0.448178   
O4       O      0.934090000000     0.006380000000     0.033150000000    -0.448613   
O5       O      0.934110000000     0.987880000000     0.959180000000    -0.448767   
O6       O      0.065100000000     0.995450000000     0.958060000000    -0.448046   
O7       O      0.004630000000     0.927930000000     0.965460000000    -0.450656   
O8       O      0.994880000000     0.058430000000     0.951680000000    -0.44397    
O9       O      0.988020000000     0.932120000000     0.533160000000    -0.446413   
O10      O      0.004030000000     0.062570000000     0.533320000000    -0.446088   
O11      O      0.930820000000     0.005370000000     0.533240000000    -0.445198   
O12      O      0.061250000000     0.989350000000     0.533230000000    -0.445366   
O13      O      0.061260000000     0.005350000000     0.458710000000    -0.445116   
O14      O      0.930820000000     0.989440000000     0.458700000000    -0.445438   
O15      O      0.988080000000     0.062650000000     0.458790000000    -0.446465   
O16      O      0.003980000000     0.932180000000     0.458620000000    -0.446095   
O17      O      0.955480000000     0.431520000000     0.988750000000    -0.444363   
O18      O      0.955480000000     0.562740000000     0.003470000000    -0.444403   
O19      O      0.955290000000     0.503320000000     0.930860000000    -0.447686   
O20      O      0.955300000000     0.490940000000     0.061360000000    -0.447726   
O21      O      0.031420000000     0.497050000000     0.061640000000    -0.449488   
O22      O      0.031420000000     0.497210000000     0.930570000000    -0.449471   
O23      O      0.031390000000     0.562700000000     0.995220000000    -0.450803   
O24      O      0.031400000000     0.431560000000     0.997000000000    -0.45067    
O25      O      0.031070000000     0.562850000000     0.490720000000    -0.449425   
O26      O      0.031070000000     0.431920000000     0.501500000000    -0.449533   
O27      O      0.031170000000     0.493020000000     0.430720000000    -0.448942   
O28      O      0.031170000000     0.501740000000     0.561500000000    -0.448913   
O29      O      0.955050000000     0.495450000000     0.561620000000    -0.448958   
O30      O      0.955060000000     0.499300000000     0.430590000000    -0.449144   
O31      O      0.955160000000     0.431780000000     0.493060000000    -0.449753   
O32      O      0.955150000000     0.562980000000     0.499150000000    -0.449724   
O33      O      0.500070000000     0.032410000000     0.063280000000    -0.452751   
O34      O      0.498890000000     0.038370000000     0.932360000000    -0.446774   
O35      O      0.433880000000     0.035240000000     0.999860000000    -0.449707   
O36      O      0.565090000000     0.035370000000     0.998740000000    -0.449741   
O37      O      0.565110000000     0.959050000000     0.993380000000    -0.449867   
O38      O      0.433910000000     0.959100000000     0.992430000000    -0.449891   
O39      O      0.500010000000     0.961980000000     0.928930000000    -0.453213   
O40      O      0.499000000000     0.956020000000     0.059850000000    -0.446731   
O41      O      0.499530000000     0.961100000000     0.562460000000    -0.449171   
O42      O      0.492650000000     0.957190000000     0.431630000000    -0.448421   
O43      O      0.561590000000     0.959150000000     0.492620000000    -0.448394   
O44      O      0.430550000000     0.959370000000     0.501490000000    -0.448381   
O45      O      0.430550000000     0.035050000000     0.490630000000    -0.44831    
O46      O      0.561580000000     0.035280000000     0.499670000000    -0.448314   
O47      O      0.499610000000     0.033320000000     0.429750000000    -0.44918    
O48      O      0.492560000000     0.037230000000     0.560570000000    -0.448202   


