data_structure

_audit_creation_method RASPA-1.0
_audit_creation_date 2023-5-19
_audit_author_name 'Poobodin Mano'

_cell_length_a    29.1373
_cell_length_b    29.1035
_cell_length_c    29.1336
_cell_angle_alpha 89.997
_cell_angle_beta  89.997
_cell_angle_gamma 89.997
_cell_volume      24705.2

_symmetry_cell_setting          triclinic
_symmetry_space_group_name_Hall 'P 1'
_symmetry_space_group_name_H-M  'P 1'
_symmetry_Int_Tables_number     1

_symmetry_equiv_pos_as_xyz 'x,y,z'

loop_
_atom_site_label
_atom_site_type_symbol
_atom_site_fract_x
_atom_site_fract_y
_atom_site_fract_z
_atom_site_charge
C1       C      0.005020000000     0.910140000000     0.502570000000     0.431981   
C2       C      0.996250000000     0.084940000000     0.500300000000     0.431923   
C3       C      0.087970000000     0.001440000000     0.501740000000     0.4327     
C4       C      0.913450000000     0.993680000000     0.501750000000     0.432767   
C5       C      0.993270000000     0.492120000000     0.583390000000     0.431325   
C6       C      0.996430000000     0.502370000000     0.409000000000     0.430898   
C7       C      0.003310000000     0.584070000000     0.500220000000     0.431155   
C8       C      0.986350000000     0.410360000000     0.491180000000     0.431431   
C9       C      0.500620000000     0.998680000000     0.411910000000     0.429891   
C10      C      0.500720000000     0.997070000000     0.586030000000     0.429701   
C11      C      0.413680000000     0.998950000000     0.499070000000     0.429791   
C12      C      0.587730000000     0.996800000000     0.498940000000     0.429983   
C13      C      0.496840000000     0.084880000000     0.995480000000     0.429694   
C14      C      0.499150000000     0.910640000000     0.002350000000     0.430192   
C15      C      0.498110000000     0.000640000000     0.086010000000     0.430579   
C16      C      0.498170000000     0.994900000000     0.911930000000     0.429838   
C17      C      0.995670000000     0.492180000000     0.909200000000     0.431913   
C18      C      0.996770000000     0.507030000000     0.083430000000     0.432032   
C19      C      0.909080000000     0.492330000000     0.996070000000     0.431686   
C20      C      0.083310000000     0.506890000000     0.996530000000     0.431967   
C21      C      0.491010000000     0.410540000000     0.987560000000     0.431545   
C22      C      0.500040000000     0.584510000000     0.001230000000     0.431767   
C23      C      0.408870000000     0.502670000000     0.995850000000     0.431052   
C24      C      0.583280000000     0.492400000000     0.993050000000     0.431118   
C25      C      0.834490000000     0.521410000000     0.967650000000    -0.0213427  
C26      C      0.657290000000     0.462500000000     0.024270000000    -0.0214496  
C27      C      0.658090000000     0.514770000000     0.958920000000    -0.0214394  
C28      C      0.705420000000     0.503290000000     0.973540000000     0.0138648  
C29      C      0.705060000000     0.471020000000     0.008510000000     0.013281   
C30      C      0.745990000000     0.451690000000     0.025190000000    -0.0655339  
C31      C      0.835120000000     0.454110000000     0.017430000000    -0.0214566  
C32      C      0.746510000000     0.522080000000     0.957250000000    -0.0662959  
C33      C      0.787240000000     0.468610000000     0.006830000000     0.013467   
C34      C      0.787280000000     0.504700000000     0.975830000000     0.0138213  
C35      C      0.157340000000     0.542280000000     0.971470000000    -0.0215405  
C36      C      0.334350000000     0.485160000000     0.033220000000    -0.0214897  
C37      C      0.334770000000     0.529250000000     0.962090000000    -0.0212321  
C38      C      0.287190000000     0.523630000000     0.979640000000     0.01286    
C39      C      0.286950000000     0.495540000000     0.018040000000     0.0146013  
C40      C      0.245870000000     0.479300000000     0.036900000000    -0.0666311  
C41      C      0.157740000000     0.480110000000     0.027540000000    -0.0216915  
C42      C      0.246300000000     0.541930000000     0.961740000000    -0.0651895  
C43      C      0.205060000000     0.495260000000     0.017170000000     0.0146316  
C44      C      0.205140000000     0.527980000000     0.982620000000     0.0131376  
C45      C      0.466190000000     0.835830000000     0.978730000000    -0.0216145  
C46      C      0.523670000000     0.658290000000     0.038850000000    -0.0214129  
C47      C      0.473570000000     0.659550000000     0.971860000000    -0.0215164  
C48      C      0.482560000000     0.706640000000     0.988370000000     0.0142468  
C49      C      0.513730000000     0.706360000000     0.024290000000     0.0132018  
C50      C      0.532510000000     0.747510000000     0.041140000000    -0.0653258  
C51      C      0.531770000000     0.836460000000     0.030680000000    -0.0214333  
C52      C      0.464250000000     0.747550000000     0.971120000000    -0.0666604  
C53      C      0.516060000000     0.788640000000     0.021890000000     0.0130266  
C54      C      0.480950000000     0.788490000000     0.989810000000     0.0142565  
C55      C      0.462810000000     0.336100000000     0.017700000000    -0.0218714  
C56      C      0.527110000000     0.159220000000     0.965390000000    -0.0213088  
C57      C      0.461610000000     0.159290000000     0.017450000000    -0.0215599  
C58      C      0.474490000000     0.206750000000     0.004530000000     0.0145683  
C59      C      0.509560000000     0.206670000000     0.972400000000     0.0127217  
C60      C      0.524480000000     0.247560000000     0.951570000000    -0.0652145  
C61      C      0.512890000000     0.336320000000     0.950680000000    -0.0212642  
C62      C      0.456260000000     0.247770000000     0.021650000000    -0.0668235  
C63      C      0.504210000000     0.288590000000     0.966830000000     0.0128537  
C64      C      0.473050000000     0.288660000000     0.002760000000     0.0147224  
C65      C      0.474510000000     0.029320000000     0.660590000000    -0.0213902  
C66      C      0.531620000000     0.968940000000     0.837630000000    -0.0213483  
C67      C      0.465200000000     0.019880000000     0.837370000000    -0.0213271  
C68      C      0.481040000000     0.010550000000     0.789920000000     0.0140551  
C69      C      0.516670000000     0.979020000000     0.789990000000     0.0130833  
C70      C      0.534050000000     0.960800000000     0.748980000000    -0.0657633  
C71      C      0.526010000000     0.963300000000     0.660330000000    -0.0212518  
C72      C      0.464570000000     0.029710000000     0.748980000000    -0.0663841  
C73      C      0.515670000000     0.978040000000     0.707970000000     0.0130224  
C74      C      0.483840000000     0.013420000000     0.708030000000     0.0141009  
C75      C      0.525950000000     0.032380000000     0.337590000000    -0.0213399  
C76      C      0.465210000000     0.975590000000     0.160590000000    -0.0213917  
C77      C      0.531400000000     0.026830000000     0.160300000000    -0.0215618  
C78      C      0.516500000000     0.016690000000     0.207940000000     0.0139671  
C79      C      0.480940000000     0.985080000000     0.208030000000     0.013218   
C80      C      0.464450000000     0.965970000000     0.248980000000    -0.0659217  
C81      C      0.474260000000     0.966510000000     0.337370000000    -0.0212836  
C82      C      0.533880000000     0.034930000000     0.248950000000    -0.0662572  
C83      C      0.483670000000     0.982330000000     0.289920000000     0.0132186  
C84      C      0.515530000000     0.017680000000     0.289960000000     0.0139132  
C85      C      0.967660000000     0.521490000000     0.834540000000    -0.0215042  
C86      C      0.023830000000     0.461680000000     0.657470000000    -0.0214605  
C87      C      0.959370000000     0.515050000000     0.658130000000    -0.0214877  
C88      C      0.973660000000     0.503300000000     0.705500000000     0.014199   
C89      C      0.008110000000     0.470480000000     0.705210000000     0.0128749  
C90      C      0.024420000000     0.450920000000     0.746190000000    -0.0653447  
C91      C      0.016570000000     0.453550000000     0.835320000000    -0.0214398  
C92      C      0.957530000000     0.522320000000     0.746540000000    -0.0665818  
C93      C      0.006230000000     0.468130000000     0.787400000000     0.0130597  
C94      C      0.975730000000     0.504660000000     0.787350000000     0.0142048  
C95      C      0.972170000000     0.542640000000     0.157520000000    -0.0215996  
C96      C      0.033790000000     0.484900000000     0.334430000000    -0.0215639  
C97      C      0.962910000000     0.529390000000     0.334950000000    -0.0213861  
C98      C      0.980440000000     0.523810000000     0.287350000000     0.0131924  
C99      C      0.018690000000     0.495520000000     0.287040000000     0.0142574  
C100     C      0.037440000000     0.479270000000     0.245910000000    -0.0664741  
C101     C      0.027960000000     0.480230000000     0.157780000000    -0.0217211  
C102     C      0.962600000000     0.542260000000     0.246510000000    -0.0653905  
C103     C      0.017770000000     0.495410000000     0.205140000000     0.0142987  
C104     C      0.983370000000     0.528280000000     0.205300000000     0.0134581  
C105     C      0.162210000000     0.024260000000     0.466020000000    -0.0214745  
C106     C      0.339170000000     0.969060000000     0.527920000000    -0.0214114  
C107     C      0.339460000000     0.030900000000     0.471460000000    -0.0215412  
C108     C      0.291830000000     0.017040000000     0.482940000000     0.0141743  
C109     C      0.291760000000     0.984460000000     0.517630000000     0.0134242  
C110     C      0.250840000000     0.970160000000     0.538470000000    -0.0658373  
C111     C      0.162490000000     0.980430000000     0.537340000000    -0.0213969  
C112     C      0.250830000000     0.032530000000     0.463060000000    -0.0662123  
C113     C      0.209910000000     0.987950000000     0.520500000000     0.0134596  
C114     C      0.209830000000     0.015910000000     0.482000000000     0.0142206  
C115     C      0.839190000000     0.970740000000     0.466140000000    -0.0211924  
C116     C      0.662300000000     0.026660000000     0.527680000000    -0.0214484  
C117     C      0.661920000000     0.964750000000     0.471310000000    -0.0214079  
C118     C      0.709570000000     0.978500000000     0.482820000000     0.0132718  
C119     C      0.709680000000     0.011180000000     0.517420000000     0.0142557  
C120     C      0.750620000000     0.025480000000     0.538210000000    -0.0662517  
C121     C      0.838940000000     0.015070000000     0.537150000000    -0.0209266  
C122     C      0.750550000000     0.962810000000     0.463060000000    -0.0657254  
C123     C      0.791520000000     0.007530000000     0.520340000000     0.0141827  
C124     C      0.791570000000     0.979360000000     0.481990000000     0.0133172  
C125     C      0.039220000000     0.657360000000     0.527490000000    -0.0215192  
C126     C      0.985790000000     0.835740000000     0.466160000000    -0.0215544  
C127     C      0.029260000000     0.835520000000     0.537640000000    -0.0211692  
C128     C      0.022720000000     0.787880000000     0.520200000000     0.0126873  
C129     C      0.995010000000     0.788210000000     0.481550000000     0.0148498  
C130     C      0.978360000000     0.747510000000     0.462280000000    -0.0668992  
C131     C      0.977810000000     0.659390000000     0.470700000000    -0.0218642  
C132     C      0.040150000000     0.746500000000     0.538060000000    -0.0649558  
C133     C      0.993430000000     0.706340000000     0.481890000000     0.0149473  
C134     C      0.025720000000     0.705610000000     0.516790000000     0.0129257  
C135     C      0.013530000000     0.158910000000     0.461820000000    -0.0216071  
C136     C      0.951710000000     0.336500000000     0.517130000000    -0.0215969  
C137     C      0.013030000000     0.335710000000     0.460240000000    -0.0223257  
C138     C      0.999530000000     0.288380000000     0.472770000000     0.0149677  
C139     C      0.967270000000     0.288680000000     0.507710000000     0.0131666  
C140     C      0.954880000000     0.247940000000     0.530450000000    -0.065152   
C141     C      0.969930000000     0.159680000000     0.533220000000    -0.0212866  
C142     C      0.016670000000     0.247290000000     0.454670000000    -0.066832   
C143     C      0.974300000000     0.206890000000     0.514070000000     0.0130409  
C144     C      0.002050000000     0.206520000000     0.475450000000     0.0145725  
H1       H      0.651670000000     0.502070000000     0.923520000000     0.0459821  
H2       H      0.648550000000     0.425450000000     0.021290000000     0.0412659  
H3       H      0.745770000000     0.425340000000     0.051410000000     0.04461    
H4       H      0.746730000000     0.549250000000     0.931870000000     0.0443058  
H5       H      0.843050000000     0.519880000000     0.930490000000     0.0406317  
H6       H      0.841530000000     0.455380000000     0.055020000000     0.0409715  
H7       H      0.651940000000     0.552370000000     0.961580000000     0.0416068  
H8       H      0.652640000000     0.475060000000     0.060000000000     0.0461964  
H9       H      0.842070000000     0.419350000000     0.003270000000     0.0455903  
H10      H      0.838500000000     0.556830000000     0.981380000000     0.0468527  
H11      H      0.344190000000     0.566220000000     0.960390000000     0.0401943  
H12      H      0.341520000000     0.501910000000     0.066750000000     0.046343   
H13      H      0.245670000000     0.455030000000     0.065060000000     0.0441858  
H14      H      0.246470000000     0.565270000000     0.932810000000     0.0442669  
H15      H      0.151200000000     0.578350000000     0.982360000000     0.0455061  
H16      H      0.153070000000     0.443610000000     0.017290000000     0.0471508  
H17      H      0.338510000000     0.512340000000     0.928090000000     0.0461182  
H18      H      0.339980000000     0.447420000000     0.034990000000     0.0407477  
H19      H      0.149700000000     0.485300000000     0.064470000000     0.0400723  
H20      H      0.150250000000     0.537540000000     0.934290000000     0.0405136  
H21      H      0.487130000000     0.655190000000     0.936450000000     0.0469058  
H22      H      0.561120000000     0.651230000000     0.037320000000     0.040852   
H23      H      0.558720000000     0.747520000000     0.067470000000     0.044475   
H24      H      0.438610000000     0.747540000000     0.944220000000     0.0443827  
H25      H      0.468780000000     0.842300000000     0.941220000000     0.0416623  
H26      H      0.529010000000     0.844910000000     0.067780000000     0.0412487  
H27      H      0.436280000000     0.651610000000     0.973530000000     0.0410556  
H28      H      0.509630000000     0.651660000000     0.073690000000     0.0455388  
H29      H      0.567370000000     0.841360000000     0.017890000000     0.0458698  
H30      H      0.430780000000     0.842010000000     0.991520000000     0.0463364  
H31      H      0.426410000000     0.151300000000     0.005070000000     0.0464765  
H32      H      0.524710000000     0.149330000000     0.928620000000     0.0413064  
H33      H      0.550750000000     0.247500000000     0.925300000000     0.0444855  
H34      H      0.430730000000     0.247900000000     0.048650000000     0.0444546  
H35      H      0.425380000000     0.343150000000     0.015600000000     0.0407875  
H36      H      0.550200000000     0.344230000000     0.951770000000     0.0410061  
H37      H      0.464570000000     0.154320000000     0.055160000000     0.0416293  
H38      H      0.562860000000     0.156160000000     0.978330000000     0.0457943  
H39      H      0.498570000000     0.341510000000     0.915710000000     0.0453449  
H40      H      0.476070000000     0.341850000000     0.053010000000     0.047312   
H41      H      0.429870000000     0.006410000000     0.842500000000     0.0460365  
H42      H      0.529410000000     0.931500000000     0.844820000000     0.0412804  
H43      H      0.560460000000     0.934650000000     0.748970000000     0.0444336  
H44      H      0.438200000000     0.055910000000     0.748990000000     0.0446552  
H45      H      0.437250000000     0.027000000000     0.652740000000     0.0414616  
H46      H      0.563420000000     0.965830000000     0.653300000000     0.0412705  
H47      H      0.467140000000     0.057240000000     0.845070000000     0.0415761  
H48      H      0.566880000000     0.982230000000     0.843570000000     0.0460469  
H49      H      0.513050000000     0.927900000000     0.654240000000     0.046025   
H50      H      0.487620000000     0.064840000000     0.655610000000     0.0461251  
H51      H      0.566740000000     0.013720000000     0.154370000000     0.0461862  
H52      H      0.467340000000     0.938230000000     0.152960000000     0.0417296  
H53      H      0.438110000000     0.939750000000     0.248990000000     0.0445534  
H54      H      0.560280000000     0.061090000000     0.248940000000     0.0446546  
H55      H      0.563360000000     0.029710000000     0.344590000000     0.0416025  
H56      H      0.437000000000     0.968980000000     0.345210000000     0.0415039  
H57      H      0.528990000000     0.064250000000     0.153100000000     0.0415786  
H58      H      0.429830000000     0.988890000000     0.155400000000     0.0459307  
H59      H      0.487240000000     0.930950000000     0.342390000000     0.0460345  
H60      H      0.513120000000     0.067810000000     0.343700000000     0.0460956  
H61      H      0.962690000000     0.552610000000     0.652010000000     0.0416294  
H62      H      0.059770000000     0.473630000000     0.652900000000     0.0461578  
H63      H      0.050250000000     0.424190000000     0.746030000000     0.0445284  
H64      H      0.932560000000     0.549860000000     0.746700000000     0.0443804  
H65      H      0.981810000000     0.556740000000     0.838560000000     0.0469114  
H66      H      0.001950000000     0.418990000000     0.842280000000     0.0454861  
H67      H      0.923780000000     0.502960000000     0.651600000000     0.0459954  
H68      H      0.020220000000     0.424690000000     0.648730000000     0.0411273  
H69      H      0.054160000000     0.454350000000     0.841770000000     0.0409933  
H70      H      0.930480000000     0.520410000000     0.843030000000     0.0407046  
H71      H      0.928820000000     0.512680000000     0.338620000000     0.0462068  
H72      H      0.035350000000     0.447130000000     0.339930000000     0.0406957  
H73      H      0.065450000000     0.454840000000     0.245640000000     0.0441267  
H74      H      0.933760000000     0.565710000000     0.246740000000     0.0443032  
H75      H      0.934940000000     0.538070000000     0.150530000000     0.0405627  
H76      H      0.064890000000     0.485310000000     0.149650000000     0.0400555  
H77      H      0.961440000000     0.566340000000     0.344490000000     0.0402111  
H78      H      0.067390000000     0.501450000000     0.341670000000     0.0463319  
H79      H      0.017590000000     0.443770000000     0.153130000000     0.0471343  
H80      H      0.983210000000     0.578650000000     0.151350000000     0.0455409  
H81      H      0.345620000000     0.067160000000     0.481720000000     0.0463346  
H82      H      0.347240000000     0.974160000000     0.564860000000     0.0409749  
H83      H      0.250830000000     0.946410000000     0.567060000000     0.0443469  
H84      H      0.250830000000     0.056160000000     0.434370000000     0.0444615  
H85      H      0.154910000000     0.061710000000     0.464300000000     0.0404986  
H86      H      0.154720000000     0.943090000000     0.539330000000     0.0407132  
H87      H      0.346460000000     0.025540000000     0.434340000000     0.041097   
H88      H      0.343910000000     0.932630000000     0.517520000000     0.0462575  
H89      H      0.157440000000     0.997550000000     0.571060000000     0.0461068  
H90      H      0.156360000000     0.007350000000     0.432320000000     0.0464144  
H91      H      0.655670000000     0.928510000000     0.481590000000     0.0462475  
H92      H      0.654220000000     0.021620000000     0.564630000000     0.0412597  
H93      H      0.750650000000     0.049340000000     0.566710000000     0.0445202  
H94      H      0.750510000000     0.939050000000     0.434480000000     0.0442982  
H95      H      0.846370000000     0.933260000000     0.464720000000     0.0404221  
H96      H      0.846790000000     0.052410000000     0.538880000000     0.0407484  
H97      H      0.654960000000     0.970110000000     0.434180000000     0.041089   
H98      H      0.657600000000     0.063090000000     0.517230000000     0.0462899  
H99      H      0.843920000000     0.998180000000     0.570990000000     0.0458956  
H100     H      0.845130000000     0.987380000000     0.432320000000     0.0462103  
H101     H      0.066370000000     0.844110000000     0.539670000000     0.0402903  
H102     H      0.002840000000     0.842360000000     0.432680000000     0.0466557  
H103     H      0.954520000000     0.747870000000     0.433780000000     0.0443727  
H104     H      0.063290000000     0.746130000000     0.567120000000     0.0442608  
H105     H      0.075300000000     0.650870000000     0.517000000000     0.0455026  
H106     H      0.941180000000     0.655070000000     0.480490000000     0.0472737  
H107     H      0.012110000000     0.839830000000     0.571440000000     0.0457429  
H108     H      0.948240000000     0.842190000000     0.464170000000     0.0409639  
H109     H      0.983290000000     0.651820000000     0.433710000000     0.0407316  
H110     H      0.033860000000     0.649800000000     0.564500000000     0.0403334  
H111     H      0.007090000000     0.342110000000     0.423100000000     0.0404679  
H112     H      0.915370000000     0.341180000000     0.506560000000     0.045394   
H113     H      0.931790000000     0.248220000000     0.559560000000     0.0443719  
H114     H      0.040570000000     0.247090000000     0.426220000000     0.0443465  
H115     H      0.996960000000     0.150350000000     0.428530000000     0.0468412  
H116     H      0.987240000000     0.157340000000     0.567120000000     0.0457535  
H117     H      0.049490000000     0.341810000000     0.469710000000     0.0476116  
H118     H      0.956720000000     0.345160000000     0.553960000000     0.0405358  
H119     H      0.933230000000     0.149520000000     0.535590000000     0.040456   
H120     H      0.051350000000     0.154110000000     0.460170000000     0.0408423  
N1       N      0.862710000000     0.488850000000     0.993620000000    -0.171245   
N2       N      0.629770000000     0.489830000000     0.992120000000    -0.171261   
N3       N      0.129630000000     0.510480000000     0.998940000000    -0.171219   
N4       N      0.362430000000     0.505510000000     0.996840000000    -0.17113    
N5       N      0.499310000000     0.864080000000     0.003820000000    -0.170993   
N6       N      0.499150000000     0.630980000000     0.004390000000    -0.171202   
N7       N      0.487900000000     0.364170000000     0.984340000000    -0.171206   
N8       N      0.495730000000     0.131400000000     0.993270000000    -0.171032   
N9       N      0.500530000000     0.996640000000     0.632560000000    -0.17117    
N10      N      0.498190000000     0.994270000000     0.865410000000    -0.171243   
N11      N      0.500390000000     0.999120000000     0.365390000000    -0.171259   
N12      N      0.498100000000     0.001310000000     0.132540000000    -0.171036   
N13      N      0.993180000000     0.488630000000     0.862840000000    -0.171247   
N14      N      0.992220000000     0.489570000000     0.629880000000    -0.171269   
N15      N      0.999400000000     0.510700000000     0.129740000000    -0.17113    
N16      N      0.997500000000     0.505350000000     0.362550000000    -0.170935   
N17      N      0.134460000000     0.002490000000     0.501880000000    -0.171378   
N18      N      0.367190000000     0.999530000000     0.499360000000    -0.171123   
N19      N      0.866960000000     0.992700000000     0.501870000000    -0.171758   
N20      N      0.634230000000     0.996200000000     0.499160000000    -0.171132   
N21      N      0.007440000000     0.630450000000     0.499190000000    -0.170993   
N22      N      0.006540000000     0.863570000000     0.502500000000    -0.171295   
N23      N      0.993910000000     0.131460000000     0.499080000000    -0.171214   
N24      N      0.982250000000     0.364080000000     0.488110000000    -0.170896   
Ni1      Ni     0.000740000000     0.997050000000     0.460700000000     1.00708    
Ni2      Ni     0.000690000000     0.998050000000     0.542660000000     0.99583    
Ni3      Ni     0.035440000000     0.492690000000     0.496730000000     0.994711   
Ni4      Ni     0.954280000000     0.501680000000     0.495680000000     1.00016    
Ni5      Ni     0.500240000000     0.957330000000     0.498620000000     0.99126    
Ni6      Ni     0.501180000000     0.038420000000     0.499310000000     0.9915     
Ni7      Ni     0.457650000000     0.997270000000     0.998980000000     0.998785   
Ni8      Ni     0.538710000000     0.998270000000     0.998970000000     0.983646   
Ni9      Ni     0.000140000000     0.458950000000     0.000310000000     0.999972   
Ni10     Ni     0.992280000000     0.540230000000     0.992330000000     1.00166    
Ni11     Ni     0.496560000000     0.493760000000     0.035120000000     0.995982   
Ni12     Ni     0.495590000000     0.501220000000     0.953760000000     1.00094    
O1       O      0.002960000000     0.931510000000     0.464210000000    -0.452046   
O2       O      0.998480000000     0.062640000000     0.462480000000    -0.451827   
O3       O      0.066370000000     0.001170000000     0.463430000000    -0.449674   
O4       O      0.935100000000     0.993020000000     0.463470000000    -0.449891   
O5       O      0.935080000000     0.995980000000     0.539950000000    -0.449737   
O6       O      0.066310000000     0.000040000000     0.539970000000    -0.449398   
O7       O      0.996480000000     0.063910000000     0.538980000000    -0.446097   
O8       O      0.004860000000     0.932110000000     0.540720000000    -0.446206   
O9       O      0.030890000000     0.484470000000     0.561960000000    -0.447453   
O10      O      0.034240000000     0.499630000000     0.431340000000    -0.447743   
O11      O      0.038920000000     0.558540000000     0.505090000000    -0.443747   
O12      O      0.026230000000     0.428430000000     0.487980000000    -0.450176   
O13      O      0.950610000000     0.435460000000     0.496990000000    -0.445666   
O14      O      0.963630000000     0.566340000000     0.494150000000    -0.452005   
O15      O      0.957740000000     0.502190000000     0.429940000000    -0.447446   
O16      O      0.956590000000     0.502510000000     0.561460000000    -0.448841   
O17      O      0.492310000000     0.961150000000     0.433370000000    -0.44629    
O18      O      0.508250000000     0.959750000000     0.563940000000    -0.446039   
O19      O      0.435010000000     0.961210000000     0.506750000000    -0.446      
O20      O      0.565540000000     0.959720000000     0.490600000000    -0.446155   
O21      O      0.566420000000     0.034400000000     0.507260000000    -0.446006   
O22      O      0.435860000000     0.036160000000     0.491310000000    -0.445824   
O23      O      0.493230000000     0.034780000000     0.564590000000    -0.445907   
O24      O      0.509010000000     0.035820000000     0.433990000000    -0.446042   
O25      O      0.459830000000     0.062800000000     0.004220000000    -0.448119   
O26      O      0.461580000000     0.931820000000     0.993720000000    -0.448707   
O27      O      0.460790000000     0.991930000000     0.064460000000    -0.448139   
O28      O      0.460650000000     0.002720000000     0.933490000000    -0.447487   
O29      O      0.535710000000     0.988260000000     0.933890000000    -0.444788   
O30      O      0.535480000000     0.008180000000     0.064050000000    -0.444721   
O31      O      0.536440000000     0.933010000000     0.009100000000    -0.443714   
O32      O      0.534700000000     0.063430000000     0.988810000000    -0.443656   
O33      O      0.000740000000     0.456090000000     0.934050000000    -0.445963   
O34      O      0.001020000000     0.467350000000     0.065100000000    -0.451856   
O35      O      0.933870000000     0.456220000000     0.001190000000    -0.445593   
O36      O      0.064940000000     0.467230000000     0.000920000000    -0.451613   
O37      O      0.058510000000     0.542970000000     0.991380000000    -0.446212   
O38      O      0.927500000000     0.531970000000     0.991790000000    -0.452256   
O39      O      0.991550000000     0.543090000000     0.058570000000    -0.445856   
O40      O      0.991540000000     0.531860000000     0.927570000000    -0.452385   
O41      O      0.488190000000     0.429320000000     0.027140000000    -0.45065    
O42      O      0.504520000000     0.559690000000     0.037400000000    -0.444443   
O43      O      0.431160000000     0.500360000000     0.033710000000    -0.448075   
O44      O      0.561820000000     0.485750000000     0.030840000000    -0.447524   
O45      O      0.561380000000     0.501800000000     0.956070000000    -0.448666   
O46      O      0.429850000000     0.502100000000     0.957180000000    -0.447625   
O47      O      0.494460000000     0.566010000000     0.961830000000    -0.452951   
O48      O      0.496510000000     0.434980000000     0.951310000000    -0.446502   


