data_structure

_audit_creation_method RASPA-1.0
_audit_creation_date 2023-5-19
_audit_author_name 'Poobodin Mano'

_cell_length_a    29.665
_cell_length_b    29.6598
_cell_length_c    29.6181
_cell_angle_alpha 89.997
_cell_angle_beta  89.997
_cell_angle_gamma 89.997
_cell_volume      26059.7

_symmetry_cell_setting          triclinic
_symmetry_space_group_name_Hall 'P 1'
_symmetry_space_group_name_H-M  'P 1'
_symmetry_Int_Tables_number     1

_symmetry_equiv_pos_as_xyz 'x,y,z'

loop_
_atom_site_label
_atom_site_type_symbol
_atom_site_fract_x
_atom_site_fract_y
_atom_site_fract_z
_atom_site_charge
C1       C      0.984650000000     0.913000000000     0.494480000000     0.429358   
C2       C      0.011870000000     0.082740000000     0.494020000000     0.429304   
C3       C      0.083210000000     0.984320000000     0.494040000000     0.429539   
C4       C      0.913510000000     0.011350000000     0.493440000000     0.429588   
C5       C      0.994410000000     0.497080000000     0.568490000000     0.426166   
C6       C      0.997140000000     0.498700000000     0.396510000000     0.426009   
C7       C      0.993510000000     0.583300000000     0.482510000000     0.426882   
C8       C      0.998110000000     0.411840000000     0.480930000000     0.427565   
C9       C      0.498430000000     0.995200000000     0.420420000000     0.427994   
C10      C      0.499110000000     0.999360000000     0.592630000000     0.427921   
C11      C      0.412630000000     0.994680000000     0.507590000000     0.429351   
C12      C      0.584320000000     0.999950000000     0.506980000000     0.42866    
C13      C      0.470640000000     0.082630000000     0.018180000000     0.426124   
C14      C      0.471880000000     0.912580000000     0.992920000000     0.425565   
C15      C      0.471540000000     0.984930000000     0.091030000000     0.426504   
C16      C      0.470930000000     0.010310000000     0.920970000000     0.427504   
C17      C      0.984850000000     0.471540000000     0.898120000000     0.42633    
C18      C      0.010690000000     0.471420000000     0.068210000000     0.427221   
C19      C      0.912730000000     0.471930000000     0.996410000000     0.425645   
C20      C      0.082750000000     0.471090000000     0.970830000000     0.426101   
C21      C      0.497050000000     0.410520000000     0.996300000000     0.425941   
C22      C      0.496660000000     0.582440000000     0.993390000000     0.424736   
C23      C      0.410690000000     0.497080000000     0.992790000000     0.426012   
C24      C      0.582580000000     0.496310000000     0.995910000000     0.424771   
C25      C      0.797450000000     0.508930000000     0.034070000000     0.0112117  
C26      C      0.728640000000     0.545280000000     0.059810000000    -0.0431143  
C27      C      0.651990000000     0.521720000000     0.032520000000    -0.0224139  
C28      C      0.702850000000     0.519090000000     0.030020000000     0.0105283  
C29      C      0.653330000000     0.479950000000     0.956490000000    -0.0214583  
C30      C      0.700190000000     0.464720000000     0.968550000000     0.0117775  
C31      C      0.775500000000     0.541090000000     0.060950000000    -0.0434721  
C32      C      0.724690000000     0.488170000000     0.001490000000    -0.00599334 
C33      C      0.721640000000     0.431110000000     0.943020000000    -0.0429103  
C34      C      0.766860000000     0.420530000000     0.950750000000    -0.043137   
C35      C      0.840130000000     0.432310000000     0.992470000000    -0.0216228  
C36      C      0.792370000000     0.445710000000     0.981670000000     0.0123245  
C37      C      0.848380000000     0.507100000000     0.034340000000    -0.0227886  
C38      C      0.771740000000     0.480830000000     0.005810000000    -0.00606447 
C39      C      0.199540000000     0.509370000000     0.941160000000     0.0113568  
C40      C      0.269100000000     0.548110000000     0.922080000000    -0.0433315  
C41      C      0.343450000000     0.527540000000     0.956530000000    -0.0232744  
C42      C      0.292890000000     0.522470000000     0.953920000000     0.0114715  
C43      C      0.338070000000     0.482870000000     0.030210000000    -0.0214722  
C44      C      0.291970000000     0.467590000000     0.015180000000     0.0127369  
C45      C      0.222780000000     0.542330000000     0.916480000000    -0.0432666  
C46      C      0.269640000000     0.490740000000     0.980390000000    -0.00612694 
C47      C      0.269220000000     0.433410000000     0.038740000000    -0.0429489  
C48      C      0.225050000000     0.421810000000     0.027170000000    -0.0427549  
C49      C      0.155300000000     0.431810000000     0.979210000000    -0.0215475  
C50      C      0.201670000000     0.446320000000     0.994070000000     0.0122593  
C51      C      0.149050000000     0.505630000000     0.935650000000    -0.0227118  
C52      C      0.223390000000     0.482050000000     0.971820000000    -0.00575042 
C53      C      0.508990000000     0.797340000000     0.955200000000     0.0111402  
C54      C      0.545400000000     0.728580000000     0.929390000000    -0.0431481  
C55      C      0.522230000000     0.651890000000     0.956910000000    -0.0225135  
C56      C      0.519400000000     0.702750000000     0.959300000000     0.010565   
C57      C      0.480580000000     0.653160000000     0.032980000000    -0.021443   
C58      C      0.465260000000     0.700010000000     0.020990000000     0.0119027  
C59      C      0.541090000000     0.775440000000     0.928210000000    -0.0434951  
C60      C      0.488540000000     0.724540000000     0.987940000000    -0.00611205 
C61      C      0.431720000000     0.721400000000     0.046650000000    -0.0429622  
C62      C      0.421020000000     0.766600000000     0.038930000000    -0.0431158  
C63      C      0.432480000000     0.839880000000     0.997110000000    -0.0215599  
C64      C      0.446010000000     0.792150000000     0.007890000000     0.0123602  
C65      C      0.507020000000     0.848270000000     0.954880000000    -0.0227005  
C66      C      0.481080000000     0.771570000000     0.983610000000    -0.00611933 
C67      C      0.508730000000     0.199390000000     0.048070000000     0.0113858  
C68      C      0.547570000000     0.268870000000     0.067190000000    -0.0433331  
C69      C      0.527410000000     0.343210000000     0.032500000000    -0.0232821  
C70      C      0.522130000000     0.292680000000     0.035220000000     0.0114704  
C71      C      0.482850000000     0.337930000000     0.958790000000    -0.0213761  
C72      C      0.467460000000     0.291840000000     0.973760000000     0.012565   
C73      C      0.541630000000     0.222580000000     0.072850000000    -0.0432296  
C74      C      0.490430000000     0.269480000000     0.008650000000    -0.00602084 
C75      C      0.433360000000     0.269120000000     0.950080000000    -0.0428581  
C76      C      0.421640000000     0.224960000000     0.961620000000    -0.0428625  
C77      C      0.431360000000     0.155170000000     0.009600000000    -0.0214599  
C78      C      0.445960000000     0.201560000000     0.994840000000     0.0122301  
C79      C      0.504830000000     0.148920000000     0.053680000000    -0.0227155  
C80      C      0.481610000000     0.223250000000     0.017240000000    -0.00576705 
C81      C      0.519520000000     0.039260000000     0.711250000000     0.0105913  
C82      C      0.536270000000     0.076020000000     0.782590000000    -0.0436434  
C83      C      0.503420000000     0.049640000000     0.856080000000    -0.023369   
C84      C      0.506320000000     0.047270000000     0.805220000000     0.0116808  
C85      C      0.432620000000     0.001440000000     0.848080000000    -0.0207396  
C86      C      0.448420000000     0.988980000000     0.801460000000     0.0121744  
C87      C      0.541920000000     0.072810000000     0.735940000000    -0.0429231  
C88      C      0.481840000000     0.015070000000     0.780410000000    -0.0059008  
C89      C      0.427290000000     0.954240000000     0.777240000000    -0.0430036  
C90      C      0.440150000000     0.944900000000     0.732840000000    -0.0427804  
C91      C      0.489020000000     0.959940000000     0.664660000000    -0.0207967  
C92      C      0.471770000000     0.972360000000     0.710780000000     0.0118391  
C93      C      0.524210000000     0.038600000000     0.660500000000    -0.0216743  
C94      C      0.491070000000     0.008850000000     0.733920000000    -0.00527817 
C95      C      0.469850000000     0.021810000000     0.301960000000     0.012337   
C96      C      0.425010000000     0.038620000000     0.235380000000    -0.0432797  
C97      C      0.432950000000     0.992630000000     0.163980000000    -0.0221336  
C98      C      0.447920000000     0.005220000000     0.210880000000     0.0133239  
C99      C      0.505830000000     0.947420000000     0.156120000000    -0.0235002  
C100     C      0.508130000000     0.949360000000     0.207060000000     0.0117693  
C101     C      0.437040000000     0.047940000000     0.280040000000    -0.0424092  
C102     C      0.482170000000     0.980270000000     0.231970000000    -0.0064633  
C103     C      0.539000000000     0.921600000000     0.229700000000    -0.0436104  
C104     C      0.543970000000     0.924440000000     0.276470000000    -0.0429493  
C105     C      0.523370000000     0.956330000000     0.352200000000    -0.0224134  
C106     C      0.520030000000     0.956800000000     0.301310000000     0.0109232  
C107     C      0.485930000000     0.034250000000     0.348530000000    -0.0206071  
C108     C      0.490650000000     0.986290000000     0.278670000000    -0.00565846 
C109     C      0.957700000000     0.520350000000     0.687820000000     0.0109889  
C110     C      0.923340000000     0.540510000000     0.759500000000    -0.0434595  
C111     C      0.947770000000     0.506230000000     0.832980000000    -0.0233986  
C112     C      0.949960000000     0.508610000000     0.782060000000     0.0115638  
C113     C      0.991140000000     0.432280000000     0.825350000000    -0.0220146  
C114     C      0.003770000000     0.446550000000     0.778230000000     0.012974   
C115     C      0.926400000000     0.545550000000     0.712760000000    -0.043189   
C116     C      0.979870000000     0.481530000000     0.757100000000    -0.00634106 
C117     C      0.036230000000     0.422410000000     0.753660000000    -0.0430347  
C118     C      0.045600000000     0.433780000000     0.708860000000    -0.0427697  
C119     C      0.033350000000     0.482610000000     0.640130000000    -0.0213062  
C120     C      0.020310000000     0.467150000000     0.686770000000     0.0126186  
C121     C      0.958050000000     0.524760000000     0.637020000000    -0.0223512  
C122     C      0.986010000000     0.489700000000     0.710320000000    -0.00603788 
C123     C      0.044130000000     0.509800000000     0.183940000000     0.0113689  
C124     C      0.064720000000     0.549070000000     0.252870000000    -0.0432428  
C125     C      0.032220000000     0.528790000000     0.328300000000    -0.0226411  
C126     C      0.033730000000     0.523340000000     0.277640000000     0.0108658  
C127     C      0.958820000000     0.483630000000     0.324680000000    -0.0212941  
C128     C      0.972990000000     0.467970000000     0.278490000000     0.011947   
C129     C      0.069140000000     0.543060000000     0.206380000000    -0.0433821  
C130     C      0.007010000000     0.491220000000     0.255200000000    -0.00582861 
C131     C      0.949180000000     0.433440000000     0.256590000000    -0.0430207  
C132     C      0.959670000000     0.421660000000     0.212170000000    -0.0429016  
C133     C      0.005270000000     0.431940000000     0.140950000000    -0.020952   
C134     C      0.991860000000     0.446330000000     0.187790000000     0.0119337  
C135     C      0.048180000000     0.505880000000     0.133280000000    -0.0226741  
C136     C      0.014420000000     0.482330000000     0.208760000000    -0.00571407 
C137     C      0.293510000000     0.019360000000     0.481690000000     0.012663   
C138     C      0.225410000000     0.032900000000     0.438260000000    -0.0430388  
C139     C      0.154700000000     0.987700000000     0.452800000000    -0.0216407  
C140     C      0.201840000000     0.001670000000     0.464920000000     0.0132596  
C141     C      0.149170000000     0.950830000000     0.530690000000    -0.0228258  
C142     C      0.200130000000     0.951490000000     0.530090000000     0.0114731  
C143     C      0.270430000000     0.042960000000     0.447740000000    -0.0424653  
C144     C      0.224100000000     0.979650000000     0.500380000000    -0.00614759 
C145     C      0.223900000000     0.925980000000     0.562080000000    -0.0433845  
C146     C      0.270870000000     0.928270000000     0.564300000000    -0.0431027  
C147     C      0.345670000000     0.956780000000     0.536520000000    -0.0222615  
C148     C      0.294780000000     0.958230000000     0.536560000000     0.0110951  
C149     C      0.340510000000     0.032740000000     0.495120000000    -0.0204964  
C150     C      0.271040000000     0.985730000000     0.506170000000    -0.00582465 
C151     C      0.701870000000     0.037800000000     0.535010000000     0.0106483  
C152     C      0.772570000000     0.071130000000     0.559570000000    -0.0433868  
C153     C      0.847420000000     0.045640000000     0.529030000000    -0.0227009  
C154     C      0.796470000000     0.044830000000     0.528330000000     0.0112712  
C155     C      0.842130000000     0.006670000000     0.452180000000    -0.0203183  
C156     C      0.795060000000     0.992740000000     0.464690000000     0.0120275  
C157     C      0.725640000000     0.068620000000     0.561920000000    -0.0430803  
C158     C      0.772650000000     0.015700000000     0.499450000000    -0.00560461 
C159     C      0.771750000000     0.960450000000     0.439110000000    -0.0427586  
C160     C      0.726780000000     0.950430000000     0.448860000000    -0.0428199  
C161     C      0.656590000000     0.961740000000     0.495800000000    -0.0206608  
C162     C      0.703390000000     0.975210000000     0.481740000000     0.0120565  
C163     C      0.650990000000     0.038190000000     0.535840000000    -0.0215854  
C164     C      0.725750000000     0.009520000000     0.505420000000    -0.00544129 
C165     C      0.952900000000     0.796120000000     0.457570000000     0.0109285  
C166     C      0.932180000000     0.725510000000     0.421580000000    -0.0434171  
C167     C      0.958410000000     0.650590000000     0.451000000000    -0.0224624  
C168     C      0.959880000000     0.701460000000     0.451460000000     0.0108686  
C169     C      0.030610000000     0.655260000000     0.498670000000    -0.0210151  
C170     C      0.016280000000     0.702260000000     0.511170000000     0.012535   
C171     C      0.929730000000     0.772450000000     0.423800000000    -0.0432451  
C172     C      0.985010000000     0.725040000000     0.483970000000    -0.00641581 
C173     C      0.037910000000     0.725410000000     0.546350000000    -0.0431392  
C174     C      0.027830000000     0.770620000000     0.554780000000    -0.0425685  
C175     C      0.984990000000     0.841930000000     0.536730000000    -0.0211185  
C176     C      0.998730000000     0.794360000000     0.525960000000     0.012062   
C177     C      0.951540000000     0.847040000000     0.457490000000    -0.0219788  
C178     C      0.978840000000     0.772080000000     0.489230000000    -0.00552017 
C179     C      0.033710000000     0.294310000000     0.449790000000     0.0112588  
C180     C      0.066250000000     0.223770000000     0.423720000000    -0.0431425  
C181     C      0.044480000000     0.148940000000     0.456910000000    -0.0227142  
C182     C      0.042530000000     0.199870000000     0.456950000000     0.011178   
C183     C      0.009530000000     0.154170000000     0.535590000000    -0.0206417  
C184     C      0.994720000000     0.201190000000     0.523910000000     0.0120237  
C185     C      0.062830000000     0.270620000000     0.420980000000    -0.0433091  
C186     C      0.015100000000     0.223610000000     0.487550000000    -0.00543532 
C187     C      0.964150000000     0.224420000000     0.551590000000    -0.0426163  
C188     C      0.953230000000     0.269300000000     0.542440000000    -0.0429357  
C189     C      0.960770000000     0.339510000000     0.494840000000    -0.0210497  
C190     C      0.975410000000     0.292710000000     0.507760000000     0.0126011  
C191     C      0.033140000000     0.345170000000     0.448010000000    -0.0223085  
C192     C      0.008010000000     0.270430000000     0.481680000000    -0.00583321 
H1       H      0.634860000000     0.451080000000     0.941100000000     0.0458463  
H2       H      0.860020000000     0.501130000000     0.069530000000     0.0403692  
H3       H      0.641790000000     0.557790000000     0.030830000000     0.040772   
H4       H      0.854870000000     0.414900000000     0.962600000000     0.0462507  
H5       H      0.794750000000     0.562730000000     0.083240000000     0.0376041  
H6       H      0.712390000000     0.569220000000     0.082140000000     0.0372991  
H7       H      0.641430000000     0.508120000000     0.065880000000     0.0480029  
H8       H      0.861030000000     0.540970000000     0.024350000000     0.0493163  
H9       H      0.703270000000     0.412860000000     0.917230000000     0.0376552  
H10      H      0.655660000000     0.507300000000     0.930950000000     0.0434129  
H11      H      0.782180000000     0.393190000000     0.931980000000     0.0377394  
H12      H      0.839940000000     0.408280000000     0.021260000000     0.0424469  
H13      H      0.355690000000     0.454160000000     0.046820000000     0.0462538  
H14      H      0.141380000000     0.497790000000     0.899750000000     0.0398292  
H15      H      0.351540000000     0.563510000000     0.963440000000     0.0405966  
H16      H      0.138470000000     0.414030000000     0.007730000000     0.0464019  
H17      H      0.205000000000     0.563400000000     0.892490000000     0.0375869  
H18      H      0.286510000000     0.572840000000     0.901550000000     0.0376303  
H19      H      0.357400000000     0.518650000000     0.922810000000     0.0498694  
H20      H      0.134300000000     0.539400000000     0.942720000000     0.0494833  
H21      H      0.285850000000     0.415350000000     0.065810000000     0.0383075  
H22      H      0.334270000000     0.510450000000     0.055330000000     0.0428438  
H23      H      0.208860000000     0.394050000000     0.044540000000     0.0378264  
H24      H      0.158470000000     0.407820000000     0.950570000000     0.0421948  
H25      H      0.451810000000     0.634670000000     0.048520000000     0.045963   
H26      H      0.500830000000     0.859850000000     0.919700000000     0.040205   
H27      H      0.558320000000     0.641820000000     0.958760000000     0.0407393  
H28      H      0.415170000000     0.854600000000     0.027060000000     0.0463524  
H29      H      0.562590000000     0.794720000000     0.905820000000     0.0376995  
H30      H      0.569310000000     0.712370000000     0.907000000000     0.037376   
H31      H      0.508800000000     0.641220000000     0.923510000000     0.0480378  
H32      H      0.540910000000     0.861030000000     0.964660000000     0.0492991  
H33      H      0.413600000000     0.703010000000     0.072510000000     0.0377707  
H34      H      0.508060000000     0.655510000000     0.058380000000     0.0433328  
H35      H      0.393730000000     0.781880000000     0.057800000000     0.0378444  
H36      H      0.408310000000     0.839620000000     0.968440000000     0.0422535  
H37      H      0.454200000000     0.355600000000     0.942110000000     0.0462243  
H38      H      0.496590000000     0.141360000000     0.089520000000     0.0397609  
H39      H      0.563390000000     0.351140000000     0.025510000000     0.0405998  
H40      H      0.413770000000     0.138340000000     0.980980000000     0.046326   
H41      H      0.562550000000     0.204780000000     0.096970000000     0.0377157  
H42      H      0.572260000000     0.286250000000     0.087780000000     0.0377408  
H43      H      0.518640000000     0.357260000000     0.066210000000     0.0499137  
H44      H      0.538630000000     0.134070000000     0.047020000000     0.0496078  
H45      H      0.415430000000     0.285770000000     0.922920000000     0.038333   
H46      H      0.510470000000     0.334110000000     0.933730000000     0.042748   
H47      H      0.393950000000     0.208800000000     0.944120000000     0.0379385  
H48      H      0.407200000000     0.158330000000     0.038100000000     0.0420851  
H49      H      0.416700000000     0.971410000000     0.864060000000     0.0455961  
H50      H      0.560660000000     0.037450000000     0.651750000000     0.0381397  
H51      H      0.493550000000     0.084430000000     0.866020000000     0.0401803  
H52      H      0.462640000000     0.940200000000     0.646610000000     0.0445984  
H53      H      0.564140000000     0.096370000000     0.719020000000     0.0367227  
H54      H      0.555140000000     0.101220000000     0.801140000000     0.0376753  
H55      H      0.537690000000     0.042830000000     0.869740000000     0.0499621  
H56      H      0.510970000000     0.071180000000     0.647400000000     0.0484717  
H57      H      0.401380000000     0.933850000000     0.792960000000     0.0376396  
H58      H      0.406820000000     0.028510000000     0.845530000000     0.0424198  
H59      H      0.425050000000     0.916510000000     0.715520000000     0.0371828  
H60      H      0.519420000000     0.938350000000     0.668370000000     0.0432167  
H61      H      0.497940000000     0.912260000000     0.145740000000     0.040447   
H62      H      0.458860000000     0.053080000000     0.366520000000     0.0450867  
H63      H      0.416230000000     0.022300000000     0.148140000000     0.0463373  
H64      H      0.559600000000     0.957530000000     0.361850000000     0.0400943  
H65      H      0.420480000000     0.075370000000     0.297590000000     0.0374973  
H66      H      0.398310000000     0.058000000000     0.219710000000     0.0378822  
H67      H      0.407990000000     0.964780000000     0.166110000000     0.0427712  
H68      H      0.515430000000     0.057120000000     0.345190000000     0.0439175  
H69      H      0.559040000000     0.897370000000     0.211080000000     0.037652   
H70      H      0.539820000000     0.956190000000     0.142890000000     0.0498479  
H71      H      0.566800000000     0.901460000000     0.293380000000     0.0369959  
H72      H      0.509130000000     0.923780000000     0.364250000000     0.0490488  
H73      H      0.020480000000     0.414910000000     0.841090000000     0.0464969  
H74      H      0.961980000000     0.561000000000     0.628120000000     0.0405364  
H75      H      0.912440000000     0.498880000000     0.843200000000     0.0404091  
H76      H      0.049880000000     0.454140000000     0.622030000000     0.0465598  
H77      H      0.904460000000     0.569450000000     0.695970000000     0.0376615  
H78      H      0.899890000000     0.561420000000     0.778170000000     0.0377337  
H79      H      0.957010000000     0.540060000000     0.846300000000     0.0498319  
H80      H      0.924350000000     0.514130000000     0.624440000000     0.0489371  
H81      H      0.054860000000     0.395210000000     0.769400000000     0.0380419  
H82      H      0.962650000000     0.408010000000     0.823620000000     0.0424242  
H83      H      0.072350000000     0.416190000000     0.691260000000     0.0383488  
H84      H      0.058050000000     0.510630000000     0.643060000000     0.0432241  
H85      H      0.942730000000     0.454950000000     0.342840000000     0.0460347  
H86      H      0.083730000000     0.497740000000     0.124610000000     0.0398383  
H87      H      0.025380000000     0.564790000000     0.336310000000     0.0396221  
H88      H      0.976450000000     0.413840000000     0.125060000000     0.0462802  
H89      H      0.092450000000     0.564220000000     0.187820000000     0.0376509  
H90      H      0.085450000000     0.574060000000     0.269630000000     0.037414   
H91      H      0.066170000000     0.520040000000     0.341650000000     0.049119   
H92      H      0.040940000000     0.539630000000     0.118580000000     0.0496103  
H93      H      0.922680000000     0.415320000000     0.274020000000     0.0378354  
H94      H      0.933480000000     0.511000000000     0.321070000000     0.0424035  
H95      H      0.942080000000     0.393710000000     0.196550000000     0.0377491  
H96      H      0.034240000000     0.408300000000     0.143150000000     0.0418199  
H97      H      0.138000000000     0.964420000000     0.563860000000     0.0490232  
H98      H      0.338300000000     0.057290000000     0.523380000000     0.044495   
H99      H      0.156080000000     0.957350000000     0.430830000000     0.0436439  
H100     H      0.356170000000     0.923630000000     0.522440000000     0.0488328  
H101     H      0.287370000000     0.068860000000     0.428330000000     0.0375816  
H102     H      0.208760000000     0.050030000000     0.410600000000     0.0374893  
H103     H      0.138370000000     0.015480000000     0.433490000000     0.0459101  
H104     H      0.357420000000     0.049860000000     0.466250000000     0.0446846  
H105     H      0.206030000000     0.903880000000     0.585050000000     0.0370988  
H106     H      0.137520000000     0.915280000000     0.528050000000     0.0398017  
H107     H      0.288640000000     0.906800000000     0.587930000000     0.0370379  
H108     H      0.357730000000     0.958820000000     0.572050000000     0.0402408  
H109     H      0.840570000000     0.036440000000     0.429440000000     0.0434081  
H110     H      0.639610000000     0.071390000000     0.522590000000     0.048264   
H111     H      0.858560000000     0.032970000000     0.562580000000     0.0489611  
H112     H      0.658850000000     0.937780000000     0.524570000000     0.0438794  
H113     H      0.707770000000     0.090510000000     0.585090000000     0.0367193  
H114     H      0.790340000000     0.093920000000     0.581940000000     0.0370266  
H115     H      0.858980000000     0.081140000000     0.525450000000     0.0396029  
H116     H      0.639490000000     0.036200000000     0.571550000000     0.0384124  
H117     H      0.788580000000     0.942470000000     0.412100000000     0.0371917  
H118     H      0.858640000000     0.978510000000     0.433580000000     0.0450631  
H119     H      0.710060000000     0.923730000000     0.430370000000     0.0372382  
H120     H      0.639690000000     0.944290000000     0.467110000000     0.0439707  
H121     H      0.044370000000     0.638150000000     0.529190000000     0.0451465  
H122     H      0.915780000000     0.858190000000     0.459190000000     0.0390065  
H123     H      0.963490000000     0.638800000000     0.415690000000     0.0400364  
H124     H      0.012070000000     0.858040000000     0.557180000000     0.0460772  
H125     H      0.909270000000     0.790390000000     0.399400000000     0.03684    
H126     H      0.912530000000     0.707840000000     0.396330000000     0.0371752  
H127     H      0.924180000000     0.640030000000     0.462090000000     0.0485301  
H128     H      0.964980000000     0.858770000000     0.424440000000     0.048563   
H129     H      0.062310000000     0.708360000000     0.567540000000     0.0377518  
H130     H      0.057820000000     0.657240000000     0.472940000000     0.0435894  
H131     H      0.043360000000     0.787310000000     0.583350000000     0.0373079  
H132     H      0.953590000000     0.841360000000     0.557200000000     0.0431035  
H133     H      0.982560000000     0.137600000000     0.555810000000     0.0456956  
H134     H      0.026990000000     0.355910000000     0.412550000000     0.0405707  
H135     H      0.080320000000     0.138210000000     0.459390000000     0.0395657  
H136     H      0.945720000000     0.356350000000     0.524890000000     0.0460413  
H137     H      0.082700000000     0.288500000000     0.396050000000     0.037685   
H138     H      0.087740000000     0.206070000000     0.400040000000     0.0370716  
H139     H      0.030910000000     0.137070000000     0.423970000000     0.0490952  
H140     H      0.067420000000     0.357280000000     0.457220000000     0.0491286  
H141     H      0.948200000000     0.207600000000     0.579850000000     0.0373812  
H142     H      0.040550000000     0.155850000000     0.556560000000     0.0432267  
H143     H      0.927860000000     0.285950000000     0.562780000000     0.0381964  
H144     H      0.934520000000     0.337210000000     0.468160000000     0.0434698  
N1       N      0.867350000000     0.472040000000     0.004460000000    -0.168355   
N2       N      0.628660000000     0.496700000000     0.996290000000    -0.168816   
N3       N      0.128440000000     0.471010000000     0.964870000000    -0.168459   
N4       N      0.364690000000     0.499270000000     0.991640000000    -0.168359   
N5       N      0.472080000000     0.867180000000     0.984920000000    -0.16841    
N6       N      0.497150000000     0.628530000000     0.993090000000    -0.168797   
N7       N      0.470470000000     0.128320000000     0.024170000000    -0.168497   
N8       N      0.499180000000     0.364510000000     0.997400000000    -0.16838    
N9       N      0.500740000000     0.000540000000     0.638640000000    -0.169269   
N10      N      0.470720000000     0.017510000000     0.875480000000    -0.169027   
N11      N      0.499580000000     0.994080000000     0.374330000000    -0.168913   
N12      N      0.471680000000     0.977970000000     0.136610000000    -0.168547   
N13      N      0.993750000000     0.498280000000     0.614600000000    -0.168628   
N14      N      0.977670000000     0.471560000000     0.852550000000    -0.168511   
N15      N      0.018190000000     0.471350000000     0.113700000000    -0.168849   
N16      N      0.997710000000     0.500560000000     0.350450000000    -0.169215   
N17      N      0.366750000000     0.993390000000     0.510120000000    -0.169334   
N18      N      0.128650000000     0.977270000000     0.493790000000    -0.169244   
N19      N      0.630160000000     0.001410000000     0.509530000000    -0.169487   
N20      N      0.868070000000     0.018280000000     0.492890000000    -0.169427   
N21      N      0.977040000000     0.867620000000     0.494970000000    -0.169264   
N22      N      0.992590000000     0.629220000000     0.480270000000    -0.169505   
N23      N      0.999120000000     0.365970000000     0.477850000000    -0.169043   
N24      N      0.018880000000     0.128210000000     0.494280000000    -0.169263   
Ni1      Ni     0.998480000000     0.997720000000     0.453760000000     1.00266    
Ni2      Ni     0.998230000000     0.997990000000     0.534240000000     1.00172    
Ni3      Ni     0.035700000000     0.498680000000     0.483140000000     0.995364   
Ni4      Ni     0.955880000000     0.496450000000     0.481800000000     0.995155   
Ni5      Ni     0.499710000000     0.957110000000     0.507530000000     1.00124    
Ni6      Ni     0.497250000000     0.037450000000     0.505610000000     1.00236    
Ni7      Ni     0.431330000000     0.997230000000     0.006020000000     0.992458   
Ni8      Ni     0.511160000000     0.997880000000     0.005870000000     0.993061   
Ni9      Ni     0.997500000000     0.431550000000     0.983230000000     0.992222   
Ni10     Ni     0.997890000000     0.511430000000     0.983190000000     0.993136   
Ni11     Ni     0.495900000000     0.497130000000     0.034580000000     0.992088   
Ni12     Ni     0.497330000000     0.495790000000     0.954600000000     0.991597   
O1       O      0.987760000000     0.933970000000     0.456710000000    -0.449145   
O2       O      0.009150000000     0.061510000000     0.456370000000    -0.44879    
O3       O      0.062110000000     0.988380000000     0.456520000000    -0.452876   
O4       O      0.934820000000     0.007040000000     0.456060000000    -0.4527     
O5       O      0.934550000000     0.009130000000     0.531220000000    -0.44879    
O6       O      0.061940000000     0.986830000000     0.531680000000    -0.448704   
O7       O      0.008030000000     0.061570000000     0.531540000000    -0.452379   
O8       O      0.988380000000     0.934380000000     0.531880000000    -0.452656   
O9       O      0.031960000000     0.492370000000     0.547510000000    -0.447381   
O10      O      0.033700000000     0.504970000000     0.418760000000    -0.447996   
O11      O      0.031000000000     0.562830000000     0.489220000000    -0.448892   
O12      O      0.034690000000     0.434430000000     0.476510000000    -0.448086   
O13      O      0.960410000000     0.432190000000     0.486820000000    -0.448537   
O14      O      0.957090000000     0.560810000000     0.476470000000    -0.448794   
O15      O      0.959910000000     0.491570000000     0.417380000000    -0.448429   
O16      O      0.957550000000     0.501710000000     0.546320000000    -0.447373   
O17      O      0.499900000000     0.958230000000     0.442830000000    -0.449422   
O18      O      0.499500000000     0.961300000000     0.572070000000    -0.45064    
O19      O      0.435180000000     0.957830000000     0.508900000000    -0.450166   
O20      O      0.564100000000     0.961740000000     0.506430000000    -0.451019   
O21      O      0.561760000000     0.036810000000     0.506620000000    -0.450644   
O22      O      0.432880000000     0.032800000000     0.505170000000    -0.450785   
O23      O      0.498100000000     0.036360000000     0.570260000000    -0.450032   
O24      O      0.496770000000     0.033220000000     0.441010000000    -0.449587   
O25      O      0.433680000000     0.061790000000     0.009790000000    -0.447378   
O26      O      0.434690000000     0.932750000000     0.001980000000    -0.447465   
O27      O      0.434350000000     0.993400000000     0.070600000000    -0.448009   
O28      O      0.433990000000     0.001120000000     0.941500000000    -0.448625   
O29      O      0.508020000000     0.013050000000     0.943020000000    -0.447299   
O30      O      0.508560000000     0.982720000000     0.068780000000    -0.446956   
O31      O      0.508790000000     0.935010000000     0.990680000000    -0.446302   
O32      O      0.507830000000     0.060730000000     0.020880000000    -0.446357   
O33      O      0.993260000000     0.434390000000     0.918660000000    -0.447956   
O34      O      0.001830000000     0.434360000000     0.047740000000    -0.448423   
O35      O      0.933020000000     0.434730000000     0.987630000000    -0.447345   
O36      O      0.062000000000     0.434050000000     0.979100000000    -0.447563   
O37      O      0.060780000000     0.508260000000     0.968270000000    -0.446333   
O38      O      0.935030000000     0.508940000000     0.998320000000    -0.446378   
O39      O      0.012920000000     0.508520000000     0.046080000000    -0.447299   
O40      O      0.982840000000     0.508650000000     0.920260000000    -0.446991   
O41      O      0.501450000000     0.432890000000     0.033050000000    -0.448583   
O42      O      0.490670000000     0.561340000000     0.030710000000    -0.448927   
O43      O      0.431340000000     0.491850000000     0.030530000000    -0.444972   
O44      O      0.560510000000     0.502370000000     0.032710000000    -0.445161   
O45      O      0.561530000000     0.490410000000     0.958550000000    -0.448764   
O46      O      0.433110000000     0.501490000000     0.956060000000    -0.448438   
O47      O      0.502700000000     0.560400000000     0.956560000000    -0.44506    
O48      O      0.491910000000     0.431230000000     0.958560000000    -0.444862   


