data_structure

_audit_creation_method RASPA-1.0
_audit_creation_date 2023-5-19
_audit_author_name 'Poobodin Mano'

_cell_length_a    17.1078
_cell_length_b    17.105
_cell_length_c    16.9547
_cell_angle_alpha 89.997
_cell_angle_beta  89.997
_cell_angle_gamma 89.997
_cell_volume      4961.44

_symmetry_cell_setting          triclinic
_symmetry_space_group_name_Hall 'P 1'
_symmetry_space_group_name_H-M  'P 1'
_symmetry_Int_Tables_number     1

_symmetry_equiv_pos_as_xyz 'x,y,z'

loop_
_atom_site_label
_atom_site_type_symbol
_atom_site_fract_x
_atom_site_fract_y
_atom_site_fract_z
_atom_site_charge
C1       C      0.044460000000     0.894880000000     0.513660000000     0.444387   
C2       C      0.041670000000     0.187050000000     0.571070000000     0.442455   
C3       C      0.191030000000     0.035140000000     0.570740000000     0.440974   
C4       C      0.898210000000     0.041160000000     0.518990000000     0.448445   
C5       C      0.081860000000     0.544700000000     0.685680000000     0.44395    
C6       C      0.091030000000     0.541860000000     0.384660000000     0.439866   
C7       C      0.090290000000     0.689830000000     0.536380000000     0.445684   
C8       C      0.088800000000     0.392080000000     0.539350000000     0.442227   
C9       C      0.549220000000     0.999940000000     0.410930000000     0.449908   
C10      C      0.549280000000     0.059440000000     0.703960000000     0.445881   
C11      C      0.401740000000     0.057340000000     0.550040000000     0.440897   
C12      C      0.694470000000     0.005910000000     0.558100000000     0.448076   
C13      C      0.480580000000     0.168010000000     0.059710000000     0.448309   
C14      C      0.521960000000     0.873500000000     0.059630000000     0.443228   
C15      C      0.496090000000     0.021060000000     0.207650000000     0.451714   
C16      C      0.499150000000     0.024760000000     0.908490000000     0.445571   
C17      C      0.008690000000     0.535440000000     0.886100000000     0.441795   
C18      C      0.029660000000     0.579910000000     0.182960000000     0.43958    
C19      C      0.867250000000     0.564880000000     0.042750000000     0.441704   
C20      C      0.163840000000     0.555100000000     0.020940000000     0.444391   
C21      C      0.524320000000     0.369860000000     0.017710000000     0.447286   
C22      C      0.500880000000     0.666140000000     0.017640000000     0.442331   
C23      C      0.662650000000     0.527560000000     0.000200000000     0.442664   
C24      C      0.368480000000     0.505900000000     0.040680000000     0.444454   
H1       H      0.765190000000     0.620860000000     0.070840000000     0.114201   
H2       H      0.764930000000     0.518280000000     0.935120000000     0.112051   
H3       H      0.270280000000     0.483340000000     0.107360000000     0.114375   
H4       H      0.267350000000     0.602600000000     0.981900000000     0.115298   
H5       H      0.589530000000     0.775740000000     0.081070000000     0.114517   
H6       H      0.460240000000     0.767700000000     0.966670000000     0.11551    
H7       H      0.550470000000     0.266100000000     0.964340000000     0.114992   
H8       H      0.417040000000     0.270750000000     0.069670000000     0.112487   
H9       H      0.570080000000     0.124970000000     0.805530000000     0.114232   
H10      H      0.444550000000     0.006590000000     0.802350000000     0.116798   
H11      H      0.562460000000     0.927360000000     0.314990000000     0.113291   
H12      H      0.438370000000     0.038590000000     0.312310000000     0.114685   
H13      H      0.130160000000     0.563760000000     0.795990000000     0.113482   
H14      H      0.987350000000     0.470780000000     0.786350000000     0.114899   
H15      H      0.144950000000     0.527160000000     0.276510000000     0.112236   
H16      H      0.025950000000     0.645980000000     0.285010000000     0.112055   
H17      H      0.306760000000     0.125090000000     0.517850000000     0.114491   
H18      H      0.285790000000     0.004210000000     0.639700000000     0.114229   
H19      H      0.798190000000     0.061250000000     0.453090000000     0.119045   
H20      H      0.793870000000     0.939700000000     0.577850000000     0.11929    
H21      H      0.031560000000     0.799320000000     0.440200000000     0.112315   
H22      H      0.144480000000     0.792580000000     0.567230000000     0.115216   
H23      H      0.145550000000     0.287940000000     0.521870000000     0.116596   
H24      H      0.016100000000     0.287570000000     0.635680000000     0.113381   
N1       N      0.788330000000     0.569570000000     0.046580000000    -0.175688   
N2       N      0.741260000000     0.531200000000     0.990510000000    -0.178366   
N3       N      0.290510000000     0.503770000000     0.052860000000    -0.178818   
N4       N      0.241960000000     0.554190000000     0.009720000000    -0.179972   
N5       N      0.534900000000     0.795390000000     0.061580000000    -0.178303   
N6       N      0.489430000000     0.744460000000     0.015620000000    -0.178605   
N7       N      0.527000000000     0.291210000000     0.015460000000    -0.177411   
N8       N      0.471650000000     0.246350000000     0.056770000000    -0.179887   
N9       N      0.546330000000     0.073480000000     0.782480000000    -0.179042   
N10      N      0.495500000000     0.028030000000     0.828940000000    -0.178778   
N11      N      0.546030000000     0.983360000000     0.333470000000    -0.17903    
N12      N      0.492190000000     0.024040000000     0.286790000000    -0.179714   
N13      N      0.078940000000     0.549730000000     0.765330000000    -0.179036   
N14      N      0.014000000000     0.521590000000     0.807760000000    -0.17671    
N15      N      0.093340000000     0.544500000000     0.304610000000    -0.176617   
N16      N      0.040600000000     0.591380000000     0.261480000000    -0.176388   
N17      N      0.324150000000     0.072030000000     0.543080000000    -0.178451   
N18      N      0.268600000000     0.028970000000     0.585980000000    -0.17832    
N19      N      0.820600000000     0.037480000000     0.505270000000    -0.179584   
N20      N      0.771880000000     0.991440000000     0.553510000000    -0.179155   
N21      N      0.046190000000     0.817610000000     0.497200000000    -0.178137   
N22      N      0.093670000000     0.768430000000     0.542870000000    -0.178459   
N23      N      0.092710000000     0.312940000000     0.540230000000    -0.176983   
N24      N      0.041770000000     0.265300000000     0.584420000000    -0.17804    
Ni1      Ni     0.056270000000     0.054410000000     0.476050000000     1.00981    
Ni2      Ni     0.032510000000     0.026410000000     0.611720000000     1.01244    
Ni3      Ni     0.157210000000     0.540840000000     0.537690000000     1.03135    
Ni4      Ni     0.017690000000     0.541640000000     0.533390000000     0.985775   
Ni5      Ni     0.536470000000     0.963840000000     0.571350000000     1.01951    
Ni6      Ni     0.560280000000     0.098210000000     0.542260000000     1.01512    
Ni7      Ni     0.430590000000     0.011300000000     0.057670000000     1.02749    
Ni8      Ni     0.568990000000     0.030440000000     0.059200000000     1.01158    
Ni9      Ni     0.014430000000     0.489740000000     0.044770000000     0.997727   
Ni10     Ni     0.017580000000     0.627790000000     0.023690000000     1.01887    
Ni11     Ni     0.505760000000     0.517160000000     0.949320000000     1.02441    
Ni12     Ni     0.524220000000     0.518490000000     0.089030000000     1.00448    
O1       O      0.049860000000     0.944160000000     0.457150000000    -0.449272   
O2       O      0.059820000000     0.162350000000     0.502370000000    -0.443541   
O3       O      0.166600000000     0.046930000000     0.500020000000    -0.434989   
O4       O      0.944820000000     0.060880000000     0.463150000000    -0.444326   
O5       O      0.924020000000     0.023400000000     0.587380000000    -0.445394   
O6       O      0.142860000000     0.027500000000     0.627880000000    -0.451106   
O7       O      0.025780000000     0.138770000000     0.627020000000    -0.439592   
O8       O      0.040460000000     0.917610000000     0.585590000000    -0.436873   
O9       O      0.148440000000     0.543130000000     0.650800000000    -0.447311   
O10      O      0.155240000000     0.539500000000     0.423870000000    -0.444879   
O11      O      0.154260000000     0.651630000000     0.539450000000    -0.458182   
O12      O      0.153050000000     0.429940000000     0.536960000000    -0.456887   
O13      O      0.022750000000     0.428050000000     0.537760000000    -0.426526   
O14      O      0.024170000000     0.654580000000     0.530930000000    -0.429348   
O15      O      0.024990000000     0.542030000000     0.420220000000    -0.43194    
O16      O      0.018150000000     0.542880000000     0.646230000000    -0.436823   
O17      O      0.543660000000     0.944190000000     0.460780000000    -0.45427    
O18      O      0.532090000000     0.990990000000     0.679490000000    -0.44909    
O19      O      0.426260000000     0.987410000000     0.562710000000    -0.436516   
O20      O      0.647700000000     0.950990000000     0.578640000000    -0.446263   
O21      O      0.668920000000     0.073790000000     0.539940000000    -0.444619   
O22      O      0.449820000000     0.114100000000     0.542430000000    -0.450243   
O23      O      0.565940000000     0.114550000000     0.655220000000    -0.44245    
O24      O      0.552950000000     0.071390000000     0.433130000000    -0.440132   
O25      O      0.420340000000     0.123340000000     0.059440000000    -0.447625   
O26      O      0.451830000000     0.900330000000     0.056700000000    -0.4374     
O27      O      0.432520000000     0.013520000000     0.169190000000    -0.459878   
O28      O      0.435790000000     0.011630000000     0.945970000000    -0.459211   
O29      O      0.564360000000     0.033320000000     0.945120000000    -0.434528   
O30      O      0.562230000000     0.027280000000     0.172480000000    -0.435794   
O31      O      0.580740000000     0.919570000000     0.060290000000    -0.450684   
O32      O      0.549730000000     0.139800000000     0.059200000000    -0.444812   
O33      O      0.005010000000     0.477180000000     0.933180000000    -0.446556   
O34      O      0.025810000000     0.510200000000     0.155690000000    -0.433724   
O35      O      0.901780000000     0.498580000000     0.050120000000    -0.429464   
O36      O      0.126810000000     0.491520000000     0.036010000000    -0.435613   
O37      O      0.127970000000     0.620260000000     0.014830000000    -0.455545   
O38      O      0.906370000000     0.627760000000     0.032780000000    -0.451173   
O39      O      0.024350000000     0.639180000000     0.136750000000    -0.443549   
O40      O      0.012790000000     0.605710000000     0.912340000000    -0.435731   
O41      O      0.516710000000     0.406800000000     0.952800000000    -0.456405   
O42      O      0.494770000000     0.627790000000     0.953320000000    -0.455009   
O43      O      0.617820000000     0.524560000000     0.939520000000    -0.444822   
O44      O      0.395490000000     0.509390000000     0.970120000000    -0.440073   
O45      O      0.413860000000     0.508820000000     0.100410000000    -0.450412   
O46      O      0.634190000000     0.527010000000     0.069990000000    -0.438742   
O47      O      0.516160000000     0.631270000000     0.083040000000    -0.43383    
O48      O      0.529030000000     0.406060000000     0.083840000000    -0.433352   


