data_structure

_audit_creation_method RASPA-1.0
_audit_creation_date 2023-5-19
_audit_author_name 'Poobodin Mano'

_cell_length_a    18.3781
_cell_length_b    17.9839
_cell_length_c    17.591
_cell_angle_alpha 89.9969
_cell_angle_beta  89.9969
_cell_angle_gamma 89.9969
_cell_volume      5814

_symmetry_cell_setting          triclinic
_symmetry_space_group_name_Hall 'P 1'
_symmetry_space_group_name_H-M  'P 1'
_symmetry_Int_Tables_number     1

_symmetry_equiv_pos_as_xyz 'x,y,z'

loop_
_atom_site_label
_atom_site_type_symbol
_atom_site_fract_x
_atom_site_fract_y
_atom_site_fract_z
_atom_site_charge
C1       C      0.032160000000     0.975720000000     0.560560000000     0.448765   
C2       C      0.116300000000     0.245540000000     0.567930000000     0.449237   
C3       C      0.200790000000     0.068930000000     0.601810000000     0.4473     
C4       C      0.945430000000     0.151900000000     0.527000000000     0.447985   
C5       C      0.006850000000     0.639680000000     0.703320000000     0.447861   
C6       C      0.021720000000     0.552160000000     0.428230000000     0.446681   
C7       C      0.981410000000     0.726850000000     0.520230000000     0.448802   
C8       C      0.044320000000     0.465870000000     0.611590000000     0.449089   
C9       C      0.609830000000     0.977070000000     0.482690000000     0.448821   
C10      C      0.566660000000     0.136430000000     0.717890000000     0.447568   
C11      C      0.456140000000     0.014970000000     0.603150000000     0.44638    
C12      C      0.721400000000     0.098160000000     0.597170000000     0.445975   
C13      C      0.538810000000     0.191640000000     0.156220000000     0.447049   
C14      C      0.520150000000     0.925210000000     0.059230000000     0.447589   
C15      C      0.544730000000     0.009380000000     0.242580000000     0.447336   
C16      C      0.516910000000     0.107720000000     0.972380000000     0.447081   
C17      C      0.083150000000     0.578760000000     0.922190000000     0.448972   
C18      C      0.016720000000     0.475890000000     0.183150000000     0.446436   
C19      C      0.926610000000     0.489840000000     0.002660000000     0.451006   
C20      C      0.175790000000     0.565270000000     0.103280000000     0.446131   
C21      C      0.588110000000     0.437400000000     0.182700000000     0.447018   
C22      C      0.557850000000     0.674770000000     0.027560000000     0.446563   
C23      C      0.703520000000     0.548550000000     0.065410000000     0.448341   
C24      C      0.437700000000     0.564720000000     0.145740000000     0.446604   
C25      C      0.799020000000     0.520960000000     0.969090000000     0.0872017  
C26      C      0.306340000000     0.538320000000     0.124370000000     0.080953   
C27      C      0.577600000000     0.810670000000     0.010500000000     0.0839219  
C28      C      0.612680000000     0.301810000000     0.187010000000     0.0857657  
C29      C      0.575370000000     0.157080000000     0.857330000000     0.0827043  
C30      C      0.625860000000     0.964580000000     0.343540000000     0.0874586  
C31      C      0.069230000000     0.675360000000     0.822440000000     0.0838468  
C32      C      0.968070000000     0.492830000000     0.313730000000     0.0849533  
C33      C      0.325700000000     0.030350000000     0.567390000000     0.0806355  
C34      C      0.819200000000     0.188220000000     0.561500000000     0.0848937  
C35      C      0.014840000000     0.857690000000     0.490610000000     0.0829425  
C36      C      0.132890000000     0.364450000000     0.636590000000     0.0857629  
H1       H      0.812320000000     0.570550000000     0.080600000000     0.122412   
H2       H      0.853500000000     0.415370000000     0.955110000000     0.108082   
H3       H      0.754610000000     0.492860000000     0.937240000000     0.0291445  
H4       H      0.815780000000     0.570140000000     0.935050000000     0.0249286  
H5       H      0.355160000000     0.598760000000     0.217750000000     0.108842   
H6       H      0.247930000000     0.640260000000     0.150910000000     0.1102     
H7       H      0.320740000000     0.531480000000     0.063350000000     0.0382544  
H8       H      0.294020000000     0.482730000000     0.148840000000     0.0319302  
H9       H      0.535870000000     0.732650000000     0.928160000000     0.107256   
H10      H      0.462720000000     0.829530000000     0.032370000000     0.114157   
H11      H      0.617160000000     0.806200000000     0.058160000000     0.0377395  
H12      H      0.605380000000     0.839860000000     0.962940000000     0.0253207  
H13      H      0.614500000000     0.379220000000     0.280760000000     0.106666   
H14      H      0.495150000000     0.290770000000     0.196010000000     0.11573    
H15      H      0.637050000000     0.307830000000     0.129410000000     0.0348682  
H16      H      0.651100000000     0.268500000000     0.222060000000     0.0253369  
H17      H      0.458980000000     0.148140000000     0.879640000000     0.111818   
H18      H      0.534210000000     0.233060000000     0.772740000000     0.10628    
H19      H      0.602310000000     0.204840000000     0.885930000000     0.0238656  
H20      H      0.615200000000     0.110470000000     0.856450000000     0.0413029  
H21      H      0.507360000000     0.973550000000     0.348060000000     0.116751   
H22      H      0.633610000000     0.877810000000     0.428050000000     0.106492   
H23      H      0.652090000000     0.922770000000     0.305840000000     0.0242204  
H24      H      0.660490000000     0.015360000000     0.343340000000     0.0339351  
H25      H      0.953870000000     0.658550000000     0.805780000000     0.110741   
H26      H      0.123850000000     0.569630000000     0.812690000000     0.114338   
H27      H      0.111540000000     0.703320000000     0.787460000000     0.0304679  
H28      H      0.055790000000     0.714460000000     0.869320000000     0.0303287  
H29      H      0.009650000000     0.391860000000     0.263580000000     0.108413   
H30      H      0.077190000000     0.536180000000     0.327300000000     0.115426   
H31      H      0.930800000000     0.536340000000     0.291360000000     0.0345357  
H32      H      0.936080000000     0.456180000000     0.352160000000     0.0285289  
H33      H      0.373400000000     0.943530000000     0.635630000000     0.108987   
H34      H      0.280720000000     0.043920000000     0.680640000000     0.111776   
H35      H      0.343670000000     0.083270000000     0.540690000000     0.0389022  
H36      H      0.304120000000     0.993510000000     0.521910000000     0.0308255  
H37      H      0.830160000000     0.086030000000     0.624890000000     0.118684   
H38      H      0.863830000000     0.174370000000     0.448720000000     0.108511   
H39      H      0.774930000000     0.219000000000     0.532100000000     0.0293912  
H40      H      0.840320000000     0.225420000000     0.606890000000     0.027934   
H41      H      0.992430000000     0.879220000000     0.609700000000     0.114111   
H42      H      0.908300000000     0.808210000000     0.486750000000     0.109442   
H43      H      0.000630000000     0.891090000000     0.439510000000     0.0295933  
H44      H      0.071550000000     0.837410000000     0.483240000000     0.0357059  
H45      H      0.016590000000     0.360940000000     0.650560000000     0.115367   
H46      H      0.161770000000     0.340370000000     0.520200000000     0.111246   
H47      H      0.175490000000     0.408330000000     0.635670000000     0.0292232  
H48      H      0.141420000000     0.332140000000     0.689750000000     0.0292288  
N1       N      0.860310000000     0.469370000000     0.975980000000    -0.230529   
N2       N      0.774420000000     0.545870000000     0.044280000000    -0.229553   
N3       N      0.242030000000     0.586250000000     0.129660000000    -0.230616   
N4       N      0.366940000000     0.571260000000     0.166820000000    -0.230617   
N5       N      0.514310000000     0.854040000000     0.034450000000    -0.229196   
N6       N      0.554820000000     0.737030000000     0.984030000000    -0.231162   
N7       N      0.543090000000     0.262750000000     0.181620000000    -0.228765   
N8       N      0.603310000000     0.374740000000     0.222650000000    -0.231474   
N9       N      0.555560000000     0.179650000000     0.780090000000    -0.230999   
N10      N      0.510690000000     0.135850000000     0.901050000000    -0.228572   
N11      N      0.621920000000     0.934240000000     0.420560000000    -0.232376   
N12      N      0.553260000000     0.982320000000     0.314060000000    -0.227404   
N13      N      0.098030000000     0.604890000000     0.851510000000    -0.229386   
N14      N      0.003780000000     0.660770000000     0.777330000000    -0.23015    
N15      N      0.027780000000     0.527730000000     0.355560000000    -0.229395   
N16      N      0.997560000000     0.447510000000     0.251810000000    -0.230442   
N17      N      0.268350000000     0.046600000000     0.622640000000    -0.230648   
N18      N      0.385880000000     0.991900000000     0.605280000000    -0.230549   
N19      N      0.876900000000     0.171920000000     0.506520000000    -0.229736   
N20      N      0.792440000000     0.119190000000     0.596060000000    -0.22851    
N21      N      0.963220000000     0.796070000000     0.496170000000    -0.23125    
N22      N      0.010170000000     0.903780000000     0.559060000000    -0.230486   
N23      N      0.141030000000     0.316610000000     0.569940000000    -0.230242   
N24      N      0.059750000000     0.396390000000     0.636860000000    -0.229795   
Ni1      Ni     0.089950000000     0.107210000000     0.498690000000     1.009      
Ni2      Ni     0.056910000000     0.114510000000     0.629740000000     1.00845    
Ni3      Ni     0.076580000000     0.611750000000     0.564120000000     1.01167    
Ni4      Ni     0.950300000000     0.581010000000     0.567080000000     1.00753    
Ni5      Ni     0.604710000000     0.005420000000     0.639700000000     1.012      
Ni6      Ni     0.572410000000     0.108160000000     0.560750000000     1.00542    
Ni7      Ni     0.465440000000     0.060360000000     0.115580000000     0.999508   
Ni8      Ni     0.594370000000     0.056510000000     0.099540000000     1.01863    
Ni9      Ni     0.074860000000     0.468200000000     0.035360000000     1.00626    
Ni10     Ni     0.027350000000     0.586810000000     0.070660000000     1.01187    
Ni11     Ni     0.553810000000     0.520240000000     0.051540000000     1.00543    
Ni12     Ni     0.587710000000     0.592040000000     0.159960000000     1.01262    
O1       O      0.057590000000     0.006070000000     0.500240000000    -0.455566   
O2       O      0.120780000000     0.208800000000     0.505740000000    -0.454266   
O3       O      0.184660000000     0.075730000000     0.531220000000    -0.452824   
O4       O      0.992680000000     0.138800000000     0.475080000000    -0.452786   
O5       O      0.962020000000     0.145590000000     0.597480000000    -0.454254   
O6       O      0.153760000000     0.082950000000     0.653570000000    -0.454829   
O7       O      0.089420000000     0.215760000000     0.627950000000    -0.454185   
O8       O      0.027000000000     0.012550000000     0.622690000000    -0.454971   
O9       O      0.067780000000     0.641220000000     0.668020000000    -0.456676   
O10      O      0.077840000000     0.579990000000     0.460510000000    -0.456333   
O11      O      0.048220000000     0.709800000000     0.532370000000    -0.451972   
O12      O      0.095820000000     0.511610000000     0.596140000000    -0.453552   
O13      O      0.977640000000     0.484880000000     0.603780000000    -0.455106   
O14      O      0.930740000000     0.679100000000     0.530520000000    -0.456189   
O15      O      0.961050000000     0.546680000000     0.464010000000    -0.449729   
O16      O      0.948790000000     0.617340000000     0.669920000000    -0.451134   
O17      O      0.617850000000     0.948410000000     0.548800000000    -0.455141   
O18      O      0.588950000000     0.069260000000     0.725490000000    -0.451358   
O19      O      0.504000000000     0.978290000000     0.640470000000    -0.454017   
O20      O      0.703570000000     0.039090000000     0.633410000000    -0.453612   
O21      O      0.673080000000     0.136910000000     0.562520000000    -0.451431   
O22      O      0.474060000000     0.072540000000     0.564400000000    -0.451735   
O23      O      0.555370000000     0.164050000000     0.651820000000    -0.454023   
O24      O      0.591440000000     0.045430000000     0.474870000000    -0.450536   
O25      O      0.476380000000     0.160400000000     0.151420000000    -0.452171   
O26      O      0.462460000000     0.960160000000     0.078900000000    -0.452389   
O27      O      0.480730000000     0.023700000000     0.217320000000    -0.448066   
O28      O      0.459630000000     0.096650000000     0.012590000000    -0.44852    
O29      O      0.580200000000     0.093670000000     0.999160000000    -0.458235   
O30      O      0.600950000000     0.019810000000     0.200930000000    -0.458819   
O31      O      0.582770000000     0.956580000000     0.063030000000    -0.453205   
O32      O      0.596860000000     0.156610000000     0.137160000000    -0.454088   
O33      O      0.098480000000     0.511040000000     0.938410000000    -0.452435   
O34      O      0.047660000000     0.433410000000     0.134420000000    -0.453338   
O35      O      0.979500000000     0.443590000000     0.998970000000    -0.453536   
O36      O      0.167040000000     0.500420000000     0.074420000000    -0.452456   
O37      O      0.122640000000     0.611220000000     0.107310000000    -0.454636   
O38      O      0.935730000000     0.554750000000     0.031080000000    -0.457903   
O39      O      0.003650000000     0.544260000000     0.167580000000    -0.453108   
O40      O      0.053140000000     0.621340000000     0.971440000000    -0.455153   
O41      O      0.569190000000     0.433110000000     0.112640000000    -0.449637   
O42      O      0.542250000000     0.611950000000     0.997350000000    -0.453501   
O43      O      0.654470000000     0.518700000000     0.023610000000    -0.454175   
O44      O      0.455010000000     0.527200000000     0.086410000000    -0.451767   
O45      O      0.486570000000     0.597290000000     0.185550000000    -0.454532   
O46      O      0.686600000000     0.581810000000     0.127340000000    -0.455827   
O47      O      0.578020000000     0.678840000000     0.097240000000    -0.451092   
O48      O      0.595960000000     0.500620000000     0.215170000000    -0.454607   


