data_structure

_audit_creation_method RASPA-1.0
_audit_creation_date 2023-5-19
_audit_author_name 'Poobodin Mano'

_cell_length_a    20.4223
_cell_length_b    21.1344
_cell_length_c    20.6078
_cell_angle_alpha 89.997
_cell_angle_beta  89.997
_cell_angle_gamma 89.997
_cell_volume      8894.6

_symmetry_cell_setting          triclinic
_symmetry_space_group_name_Hall 'P 1'
_symmetry_space_group_name_H-M  'P 1'
_symmetry_Int_Tables_number     1

_symmetry_equiv_pos_as_xyz 'x,y,z'

loop_
_atom_site_label
_atom_site_type_symbol
_atom_site_fract_x
_atom_site_fract_y
_atom_site_fract_z
_atom_site_charge
C1       C      0.021340000000     0.943800000000     0.580670000000     0.442343   
C2       C      0.091570000000     0.175360000000     0.569850000000     0.439707   
C3       C      0.173190000000     0.024670000000     0.599660000000     0.442176   
C4       C      0.937670000000     0.089690000000     0.552610000000     0.442371   
C5       C      0.077450000000     0.581770000000     0.689210000000     0.441726   
C6       C      0.046760000000     0.547610000000     0.446290000000     0.441536   
C7       C      0.052620000000     0.681280000000     0.551630000000     0.441739   
C8       C      0.069820000000     0.442580000000     0.585300000000     0.440338   
C9       C      0.523320000000     0.035910000000     0.437620000000     0.442194   
C10      C      0.602580000000     0.007780000000     0.670170000000     0.441344   
C11      C      0.445030000000     0.011790000000     0.589120000000     0.442695   
C12      C      0.682080000000     0.035760000000     0.515830000000     0.440502   
C13      C      0.572720000000     0.157080000000     0.046460000000     0.44559    
C14      C      0.535480000000     0.921040000000     0.078040000000     0.442931   
C15      C      0.539710000000     0.058990000000     0.182070000000     0.443297   
C16      C      0.570800000000     0.024400000000     0.939530000000     0.44278    
C17      C      0.114460000000     0.560030000000     0.945490000000     0.443743   
C18      C      0.027380000000     0.534040000000     0.175730000000     0.441591   
C19      C      0.956450000000     0.566400000000     0.017720000000     0.442443   
C20      C      0.188220000000     0.531460000000     0.101870000000     0.443155   
C21      C      0.590530000000     0.417480000000     0.026940000000     0.444536   
C22      C      0.548540000000     0.653020000000     0.056160000000     0.443614   
C23      C      0.689410000000     0.553430000000     0.025270000000     0.443619   
C24      C      0.446300000000     0.511240000000     0.059000000000     0.442598   
C25      C      0.857290000000     0.529580000000     0.959300000000    -0.00870605 
C26      C      0.785920000000     0.551330000000     0.952720000000    -0.00624804 
C27      C      0.282920000000     0.462310000000     0.127490000000    -0.00762242 
C28      C      0.357690000000     0.469660000000     0.128640000000    -0.00709193 
C29      C      0.576120000000     0.816920000000     0.114330000000    -0.00806716 
C30      C      0.550920000000     0.749260000000     0.124800000000    -0.00771471 
C31      C      0.646040000000     0.249860000000     0.048820000000    -0.00651021 
C32      C      0.638820000000     0.319040000000     0.069050000000    -0.00788945 
C33      C      0.642810000000     0.050490000000     0.774820000000    -0.00914771 
C34      C      0.645910000000     0.028730000000     0.845880000000    -0.00734336 
C35      C      0.477990000000     0.101350000000     0.348330000000    -0.00766779 
C36      C      0.471870000000     0.095500000000     0.274380000000    -0.0070518  
C37      C      0.146960000000     0.626750000000     0.852070000000    -0.0069442  
C38      C      0.148240000000     0.619850000000     0.778000000000    -0.0081267  
C39      C      0.975710000000     0.555890000000     0.349410000000    -0.0063896  
C40      C      0.984160000000     0.578080000000     0.278810000000    -0.00913813 
C41      C      0.273790000000     0.969200000000     0.564760000000    -0.00600712 
C42      C      0.340960000000     0.950930000000     0.592450000000    -0.00758259 
C43      C      0.771150000000     0.105050000000     0.476320000000    -0.00919968 
C44      C      0.846310000000     0.104980000000     0.475370000000    -0.00610648 
C45      C      0.988280000000     0.846280000000     0.523920000000    -0.0083761  
C46      C      0.982850000000     0.775090000000     0.537400000000    -0.00657283 
C47      C      0.124580000000     0.275540000000     0.623510000000    -0.00922433 
C48      C      0.135310000000     0.345790000000     0.605930000000    -0.00702039 
H1       H      0.881200000000     0.625160000000     0.989220000000     0.1044     
H2       H      0.784620000000     0.560910000000     0.057980000000     0.108377   
H3       H      0.877810000000     0.520960000000     0.910140000000     0.0365138  
H4       H      0.858730000000     0.484410000000     0.987020000000     0.0467989  
H5       H      0.759460000000     0.515630000000     0.922940000000     0.0410585  
H6       H      0.783550000000     0.597570000000     0.927110000000     0.0396686  
H7       H      0.275860000000     0.564230000000     0.138910000000     0.106651   
H8       H      0.352120000000     0.494700000000     0.026200000000     0.10753    
H9       H      0.266850000000     0.438850000000     0.173050000000     0.0361986  
H10      H      0.268960000000     0.431540000000     0.085920000000     0.0453536  
H11      H      0.379960000000     0.422380000000     0.137150000000     0.0370261  
H12      H      0.371880000000     0.501150000000     0.169560000000     0.0440748  
H13      H      0.476320000000     0.842090000000     0.086960000000     0.104305   
H14      H      0.528950000000     0.743110000000     0.021720000000     0.107352   
H15      H      0.618020000000     0.816250000000     0.079820000000     0.0468623  
H16      H      0.594010000000     0.835460000000     0.161630000000     0.0391193  
H17      H      0.503980000000     0.749860000000     0.152090000000     0.0391798  
H18      H      0.587810000000     0.723910000000     0.154850000000     0.0434452  
H19      H      0.541320000000     0.248240000000     0.028360000000     0.107931   
H20      H      0.606340000000     0.338360000000     0.970300000000     0.103732   
H21      H      0.674480000000     0.225200000000     0.087310000000     0.0422952  
H22      H      0.673880000000     0.246490000000     0.002590000000     0.0376731  
H23      H      0.688240000000     0.338680000000     0.079400000000     0.0369032  
H24      H      0.609060000000     0.321600000000     0.114220000000     0.0466611  
H25      H      0.632100000000     0.952010000000     0.746940000000     0.105009   
H26      H      0.539240000000     0.022590000000     0.843940000000     0.108097   
H27      H      0.692190000000     0.067140000000     0.759840000000     0.0364609  
H28      H      0.608210000000     0.090950000000     0.770480000000     0.0474471  
H29      H      0.674650000000     0.064690000000     0.873180000000     0.0408456  
H30      H      0.672070000000     0.982770000000     0.850010000000     0.0418069  
H31      H      0.491940000000     0.999470000000     0.350170000000     0.107492   
H32      H      0.576230000000     0.074350000000     0.274020000000     0.107248   
H33      H      0.429750000000     0.114870000000     0.369070000000     0.0365407  
H34      H      0.514000000000     0.139220000000     0.359860000000     0.0437415  
H35      H      0.458690000000     0.142450000000     0.253840000000     0.0372643  
H36      H      0.432070000000     0.061440000000     0.262610000000     0.0428412  
H37      H      0.141560000000     0.524120000000     0.856280000000     0.107182   
H38      H      0.043490000000     0.599660000000     0.782080000000     0.106306   
H39      H      0.108260000000     0.661380000000     0.865640000000     0.044128   
H40      H      0.194990000000     0.645280000000     0.868850000000     0.0379941  
H41      H      0.188030000000     0.586460000000     0.764270000000     0.0448667  
H42      H      0.159440000000     0.666760000000     0.756260000000     0.0380401  
H43      H      0.081140000000     0.540390000000     0.352040000000     0.107927   
H44      H      0.989720000000     0.479520000000     0.249920000000     0.10401    
H45      H      0.946290000000     0.511690000000     0.351550000000     0.039938   
H46      H      0.948200000000     0.593380000000     0.375770000000     0.0403974  
H47      H      0.021420000000     0.616460000000     0.276910000000     0.0474519  
H48      H      0.936840000000     0.597750000000     0.261420000000     0.0359982  
H49      H      0.247170000000     0.998630000000     0.662420000000     0.104398   
H50      H      0.357350000000     0.047880000000     0.622730000000     0.107392   
H51      H      0.248350000000     0.925400000000     0.548690000000     0.0371531  
H52      H      0.280620000000     0.000390000000     0.521790000000     0.0465321  
H53      H      0.365210000000     0.919050000000     0.556850000000     0.0440231  
H54      H      0.335050000000     0.924380000000     0.638630000000     0.0380974  
H55      H      0.770620000000     0.002180000000     0.481060000000     0.103867   
H56      H      0.843280000000     0.112270000000     0.580850000000     0.106648   
H57      H      0.753180000000     0.117550000000     0.427050000000     0.0349498  
H58      H      0.753930000000     0.142300000000     0.510450000000     0.0467382  
H59      H      0.863450000000     0.149250000000     0.451710000000     0.0369728  
H60      H      0.864000000000     0.064280000000     0.445940000000     0.0435049  
H61      H      0.987730000000     0.863920000000     0.628120000000     0.104621   
H62      H      0.089800000000     0.770680000000     0.532600000000     0.105526   
H63      H      0.940900000000     0.862940000000     0.503560000000     0.0360139  
H64      H      0.026740000000     0.854730000000     0.486650000000     0.0463285  
H65      H      0.955210000000     0.753230000000     0.496640000000     0.0378861  
H66      H      0.954460000000     0.766680000000     0.582660000000     0.0438398  
H67      H      0.125730000000     0.253750000000     0.520420000000     0.104514   
H68      H      0.029120000000     0.354320000000     0.601350000000     0.106696   
H69      H      0.083890000000     0.271220000000     0.659130000000     0.0463055  
H70      H      0.169820000000     0.257510000000     0.647150000000     0.0372121  
H71      H      0.166530000000     0.350050000000     0.561940000000     0.0426651  
H72      H      0.161830000000     0.368640000000     0.646830000000     0.0389689  
N1       N      0.896610000000     0.577990000000     0.991870000000    -0.219964   
N2       N      0.755060000000     0.557020000000     0.016690000000    -0.220295   
N3       N      0.250820000000     0.524090000000     0.122510000000    -0.218978   
N4       N      0.382460000000     0.495210000000     0.067120000000    -0.218629   
N5       N      0.524450000000     0.858820000000     0.089990000000    -0.219746   
N6       N      0.541770000000     0.716590000000     0.062670000000    -0.219693   
N7       N      0.581670000000     0.220260000000     0.040850000000    -0.221151   
N8       N      0.608040000000     0.356420000000     0.017570000000    -0.221021   
N9       N      0.623190000000     0.998550000000     0.732030000000    -0.218409   
N10      N      0.580260000000     0.023260000000     0.874350000000    -0.219385   
N11      N      0.499140000000     0.041170000000     0.376640000000    -0.220213   
N12      N      0.533650000000     0.073930000000     0.245720000000    -0.219813   
N13      N      0.134530000000     0.565640000000     0.883090000000    -0.219657   
N14      N      0.085190000000     0.597200000000     0.752680000000    -0.218724   
N15      N      0.039310000000     0.545780000000     0.380850000000    -0.219333   
N16      N      0.002920000000     0.525500000000     0.236370000000    -0.219269   
N17      N      0.233360000000     0.001140000000     0.613580000000    -0.220674   
N18      N      0.380490000000     0.007680000000     0.603950000000    -0.219908   
N19      N      0.744470000000     0.042810000000     0.494080000000    -0.217756   
N20      N      0.873510000000     0.102150000000     0.541170000000    -0.218774   
N21      N      0.001890000000     0.882460000000     0.583200000000    -0.219082   
N22      N      0.047280000000     0.744560000000     0.541780000000    -0.219299   
N23      N      0.111420000000     0.236680000000     0.565920000000    -0.217975   
N24      N      0.073110000000     0.379150000000     0.595920000000    -0.218397   
Ni1      Ni     0.065920000000     0.054020000000     0.518840000000     1.00339    
Ni2      Ni     0.046540000000     0.064880000000     0.632510000000     1.00078    
Ni3      Ni     0.119680000000     0.564940000000     0.560710000000     0.998464   
Ni4      Ni     0.003960000000     0.559280000000     0.575660000000     1.00576    
Ni5      Ni     0.567270000000     0.967060000000     0.545360000000     1.01005    
Ni6      Ni     0.560440000000     0.078620000000     0.561920000000     1.00101    
Ni7      Ni     0.497120000000     0.046360000000     0.052640000000     1.00396    
Ni8      Ni     0.611790000000     0.031780000000     0.069670000000     1.01182    
Ni9      Ni     0.066240000000     0.492290000000     0.052070000000     1.00513    
Ni10     Ni     0.077210000000     0.603450000000     0.069660000000     1.00631    
Ni11     Ni     0.558340000000     0.539740000000     0.985090000000     1.00731    
Ni12     Ni     0.576800000000     0.529620000000     0.099020000000     1.00922    
O1       O      0.038190000000     0.968060000000     0.526230000000    -0.454727   
O2       O      0.092010000000     0.141280000000     0.518420000000    -0.452884   
O3       O      0.153570000000     0.028310000000     0.540590000000    -0.450896   
O4       O      0.976620000000     0.078680000000     0.505110000000    -0.45186    
O5       O      0.958170000000     0.087660000000     0.611330000000    -0.453391   
O6       O      0.135560000000     0.040590000000     0.646550000000    -0.455125   
O7       O      0.073420000000     0.151890000000     0.624430000000    -0.447954   
O8       O      0.021750000000     0.977030000000     0.632760000000    -0.449962   
O9       O      0.127470000000     0.580020000000     0.651770000000    -0.453714   
O10      O      0.104630000000     0.550600000000     0.470050000000    -0.452947   
O11      O      0.108880000000     0.654550000000     0.547430000000    -0.449948   
O12      O      0.122220000000     0.474900000000     0.575800000000    -0.447273   
O13      O      0.013710000000     0.469620000000     0.585920000000    -0.453597   
O14      O      0.001180000000     0.648810000000     0.564070000000    -0.455623   
O15      O      0.996320000000     0.549250000000     0.483380000000    -0.45114    
O16      O      0.019760000000     0.571460000000     0.666900000000    -0.451372   
O17      O      0.539220000000     0.980990000000     0.458310000000    -0.457823   
O18      O      0.594130000000     0.959470000000     0.633760000000    -0.456053   
O19      O      0.477050000000     0.962460000000     0.571390000000    -0.450734   
O20      O      0.657040000000     0.980160000000     0.519700000000    -0.449649   
O21      O      0.648510000000     0.084670000000     0.531240000000    -0.454736   
O22      O      0.472650000000     0.066070000000     0.591120000000    -0.455878   
O23      O      0.592050000000     0.063920000000     0.648670000000    -0.44889    
O24      O      0.529000000000     0.084900000000     0.474060000000    -0.449741   
O25      O      0.514850000000     0.134480000000     0.040860000000    -0.456057   
O26      O      0.486720000000     0.957200000000     0.065710000000    -0.453769   
O27      O      0.489630000000     0.060590000000     0.144480000000    -0.451343   
O28      O      0.512800000000     0.032320000000     0.961880000000    -0.451419   
O29      O      0.620120000000     0.020930000000     0.977840000000    -0.455205   
O30      O      0.596530000000     0.045310000000     0.160000000000    -0.45798    
O31      O      0.593870000000     0.943300000000     0.080800000000    -0.452367   
O32      O      0.621690000000     0.120980000000     0.058380000000    -0.456917   
O33      O      0.099780000000     0.505050000000     0.966780000000    -0.457856   
O34      O      0.033410000000     0.485820000000     0.138680000000    -0.456602   
O35      O      0.979300000000     0.509780000000     0.020200000000    -0.44911    
O36      O      0.154210000000     0.483340000000     0.084210000000    -0.449823   
O37      O      0.164090000000     0.587280000000     0.099830000000    -0.456477   
O38      O      0.990140000000     0.613290000000     0.038150000000    -0.458541   
O39      O      0.043580000000     0.589490000000     0.155860000000    -0.448894   
O40      O      0.109100000000     0.609130000000     0.981870000000    -0.449546   
O41      O      0.573280000000     0.450750000000     0.977960000000    -0.456807   
O42      O      0.545160000000     0.628460000000     0.999430000000    -0.453836   
O43      O      0.650890000000     0.553040000000     0.976070000000    -0.452192   
O44      O      0.467300000000     0.524250000000     0.001920000000    -0.452279   
O45      O      0.485230000000     0.511440000000     0.107820000000    -0.453724   
O46      O      0.667050000000     0.547340000000     0.082930000000    -0.457054   
O47      O      0.559860000000     0.618540000000     0.106120000000    -0.453887   
O48      O      0.593990000000     0.441860000000     0.083820000000    -0.45527    


