data_structure

_audit_creation_method RASPA-1.0
_audit_creation_date 2023-5-19
_audit_author_name 'Poobodin Mano'

_cell_length_a    21.1916
_cell_length_b    20.8548
_cell_length_c    21.0573
_cell_angle_alpha 90
_cell_angle_beta  90
_cell_angle_gamma 90
_cell_volume      9306.2

_symmetry_cell_setting          triclinic
_symmetry_space_group_name_Hall 'P 1'
_symmetry_space_group_name_H-M  'P 1'
_symmetry_Int_Tables_number     1

_symmetry_equiv_pos_as_xyz 'x,y,z'

loop_
_atom_site_label
_atom_site_type_symbol
_atom_site_fract_x
_atom_site_fract_y
_atom_site_fract_z
_atom_site_charge
C1       C      0.999870000000     0.255030000000     0.628590000000     0.487781   
C2       C      0.099370000000     0.051380000000     0.712490000000     0.486062   
C3       C      0.947100000000     0.093900000000     0.653110000000     0.487551   
C4       C      0.152100000000     0.213190000000     0.687310000000     0.486674   
C5       C      0.099040000000     0.515350000000     0.508290000000     0.48693    
C6       C      0.072160000000     0.732840000000     0.611340000000     0.486174   
C7       C      0.075970000000     0.676300000000     0.451920000000     0.488006   
C8       C      0.095600000000     0.571070000000     0.667380000000     0.486558   
C9       C      0.491670000000     0.083070000000     0.765140000000     0.486498   
C10      C      0.586710000000     0.105340000000     0.545760000000     0.486254   
C11      C      0.646900000000     0.071280000000     0.701730000000     0.487032   
C12      C      0.430850000000     0.116020000000     0.609800000000     0.487991   
C13      C      0.657190000000     0.232570000000     0.181400000000     0.48687    
C14      C      0.652480000000     0.015290000000     0.074940000000     0.487408   
C15      C      0.689840000000     0.071620000000     0.231420000000     0.486711   
C16      C      0.620360000000     0.174570000000     0.025350000000     0.487263   
C17      C      0.192870000000     0.512830000000     0.966050000000     0.487805   
C18      C      0.121560000000     0.663580000000     0.139910000000     0.487414   
C19      C      0.044340000000     0.552090000000     0.036450000000     0.48651    
C20      C      0.269910000000     0.623760000000     0.070420000000     0.487501   
C21      C      0.709260000000     0.551390000000     0.195540000000     0.487385   
C22      C      0.595620000000     0.701470000000     0.045570000000     0.487455   
C23      C      0.757150000000     0.665950000000     0.078110000000     0.486806   
C24      C      0.547330000000     0.587920000000     0.162600000000     0.487558   
C25      C      0.936400000000     0.569940000000     0.993780000000     0.0241823  
C26      C      0.898610000000     0.610460000000     0.041010000000    -0.110611   
C27      C      0.850560000000     0.653780000000     0.007780000000     0.0250613  
C28      C      0.448760000000     0.524730000000     0.150330000000     0.0250266  
C29      C      0.410280000000     0.560630000000     0.099690000000    -0.108498   
C30      C      0.371670000000     0.615870000000     0.128220000000     0.0293142  
C31      C      0.593480000000     0.919000000000     0.041480000000     0.0253691  
C32      C      0.608590000000     0.850640000000     0.019690000000    -0.114774   
C33      C      0.549690000000     0.807920000000     0.021640000000     0.0289631  
C34      C      0.755710000000     0.445050000000     0.220090000000     0.028884   
C35      C      0.697730000000     0.401400000000     0.225740000000    -0.115002   
C36      C      0.714460000000     0.331700000000     0.209820000000     0.0247686  
C37      C      0.538250000000     0.195210000000     0.943640000000     0.0244019  
C38      C      0.533010000000     0.135350000000     0.901700000000    -0.110365   
C39      C      0.467720000000     0.129300000000     0.870830000000     0.0262738  
C40      C      0.666460000000     0.023960000000     0.337230000000     0.0267401  
C41      C      0.658170000000     0.079090000000     0.384580000000    -0.114873   
C42      C      0.618230000000     0.059040000000     0.442090000000     0.0246142  
C43      C      0.219090000000     0.492810000000     0.853140000000     0.0296632  
C44      C      0.154730000000     0.500690000000     0.820560000000    -0.115152   
C45      C      0.162350000000     0.528220000000     0.753460000000     0.0253118  
C46      C      0.104770000000     0.689170000000     0.253730000000     0.0273003  
C47      C      0.111240000000     0.750550000000     0.293490000000    -0.115041   
C48      C      0.124370000000     0.736460000000     0.363670000000     0.0251151  
C49      C      0.255670000000     0.250910000000     0.647470000000     0.0278688  
C50      C      0.295170000000     0.189380000000     0.645380000000    -0.111418   
C51      C      0.340380000000     0.188950000000     0.588620000000     0.0254331  
C52      C      0.843740000000     0.054180000000     0.692160000000     0.0301062  
C53      C      0.801340000000     0.113810000000     0.695360000000    -0.109733   
C54      C      0.749920000000     0.107270000000     0.746270000000     0.0242251  
C55      C      0.116570000000     0.836230000000     0.648220000000     0.0244106  
C56      C      0.093850000000     0.896280000000     0.683650000000    -0.114684   
C57      C      0.147670000000     0.943850000000     0.695830000000     0.0257072  
C58      C      0.054830000000     0.409710000000     0.478350000000     0.0261834  
C59      C      0.043270000000     0.378300000000     0.543190000000    -0.110825   
C60      C      0.984610000000     0.335380000000     0.542930000000     0.0259005  
H1       H      0.958740000000     0.601020000000     0.957200000000     0.0324745  
H2       H      0.904050000000     0.536420000000     0.968790000000     0.0194423  
H3       H      0.833520000000     0.728100000000     0.076940000000     0.0995729  
H4       H      0.873490000000     0.577910000000     0.074370000000     0.0578276  
H5       H      0.931550000000     0.640850000000     0.069060000000     0.0574727  
H6       H      0.819780000000     0.625170000000     0.975700000000     0.0317996  
H7       H      0.875910000000     0.689470000000     0.978000000000     0.0195862  
H8       H      0.968000000000     0.492440000000     0.053530000000     0.0989655  
H9       H      0.476620000000     0.485860000000     0.127530000000     0.0303054  
H10      H      0.416030000000     0.501460000000     0.184570000000     0.0187501  
H11      H      0.347670000000     0.681600000000     0.052630000000     0.0999259  
H12      H      0.442630000000     0.579880000000     0.062740000000     0.058012   
H13      H      0.377880000000     0.525880000000     0.076440000000     0.0552094  
H14      H      0.404150000000     0.653820000000     0.145680000000     0.0231901  
H15      H      0.343920000000     0.598780000000     0.169780000000     0.0311365  
H16      H      0.471840000000     0.591630000000     0.224940000000     0.0982744  
H17      H      0.570980000000     0.916960000000     0.089210000000     0.0313057  
H18      H      0.559910000000     0.941570000000     0.007590000000     0.0241936  
H19      H      0.556340000000     0.726300000000     0.958620000000     0.0983806  
H20      H      0.627440000000     0.851830000000     0.970410000000     0.0524003  
H21      H      0.645600000000     0.830450000000     0.051300000000     0.0648009  
H22      H      0.514180000000     0.826360000000     0.987310000000     0.0167017  
H23      H      0.527820000000     0.809090000000     0.069680000000     0.0288177  
H24      H      0.691170000000     0.943200000000     0.019750000000     0.0998197  
H25      H      0.775390000000     0.442930000000     0.171130000000     0.0284259  
H26      H      0.793060000000     0.428040000000     0.253150000000     0.0169978  
H27      H      0.617240000000     0.306820000000     0.232880000000     0.0991522  
H28      H      0.678900000000     0.403920000000     0.274980000000     0.0523611  
H29      H      0.660440000000     0.418230000000     0.192560000000     0.0639153  
H30      H      0.748120000000     0.312770000000     0.245730000000     0.0246149  
H31      H      0.737520000000     0.330350000000     0.162320000000     0.0311493  
H32      H      0.750180000000     0.527560000000     0.281930000000     0.0989079  
H33      H      0.502780000000     0.193480000000     0.982550000000     0.0318     
H34      H      0.528280000000     0.238620000000     0.914690000000     0.0189877  
H35      H      0.452910000000     0.031480000000     0.839970000000     0.0988262  
H36      H      0.569720000000     0.138080000000     0.864040000000     0.061332   
H37      H      0.542380000000     0.091880000000     0.930830000000     0.0567372  
H38      H      0.454170000000     0.175000000000     0.847190000000     0.0298034  
H39      H      0.431920000000     0.119330000000     0.908140000000     0.0180342  
H40      H      0.637510000000     0.216740000000     0.938000000000     0.0980721  
H41      H      0.619900000000     0.008990000000     0.317830000000     0.0302802  
H42      H      0.687130000000     0.981800000000     0.361980000000     0.0175233  
H43      H      0.624230000000     0.158710000000     0.472240000000     0.0995615  
H44      H      0.705400000000     0.094960000000     0.401470000000     0.0540023  
H45      H      0.635050000000     0.120120000000     0.360120000000     0.0583071  
H46      H      0.641310000000     0.017770000000     0.466220000000     0.029149   
H47      H      0.570530000000     0.044050000000     0.425820000000     0.0259022  
H48      H      0.757730000000     0.038440000000     0.294240000000     0.0987712  
H49      H      0.245950000000     0.538650000000     0.851590000000     0.0278177  
H50      H      0.247250000000     0.456280000000     0.827100000000     0.0162057  
H51      H      0.059830000000     0.522960000000     0.745520000000     0.0992051  
H52      H      0.130890000000     0.453270000000     0.817920000000     0.0532109  
H53      H      0.124400000000     0.533620000000     0.848640000000     0.0651203  
H54      H      0.189060000000     0.493580000000     0.723590000000     0.0259751  
H55      H      0.189480000000     0.573850000000     0.756110000000     0.0300054  
H56      H      0.221700000000     0.424600000000     0.930600000000     0.0983157  
H57      H      0.060420000000     0.663760000000     0.266400000000     0.0283433  
H58      H      0.145450000000     0.657060000000     0.264100000000     0.0337436  
H59      H      0.025280000000     0.711180000000     0.375320000000     0.100017   
H60      H      0.151300000000     0.779300000000     0.274690000000     0.0492601  
H61      H      0.067710000000     0.779990000000     0.288980000000     0.0494659  
H62      H      0.134270000000     0.782500000000     0.388340000000     0.0229539  
H63      H      0.167240000000     0.705860000000     0.367450000000     0.0313447  
H64      H      0.087410000000     0.750480000000     0.172180000000     0.0988685  
H65      H      0.233530000000     0.260330000000     0.600440000000     0.0281691  
H66      H      0.286890000000     0.292300000000     0.658480000000     0.0170854  
H67      H      0.346800000000     0.088000000000     0.567990000000     0.0987292  
H68      H      0.322650000000     0.184990000000     0.690170000000     0.0572439  
H69      H      0.263400000000     0.147100000000     0.641700000000     0.0633409  
H70      H      0.374570000000     0.229230000000     0.592370000000     0.0315727  
H71      H      0.313170000000     0.195820000000     0.543990000000     0.0190931  
H72      H      0.215040000000     0.267780000000     0.740270000000     0.0986501  
H73      H      0.814950000000     0.011360000000     0.680160000000     0.0203533  
H74      H      0.866060000000     0.045090000000     0.739150000000     0.0290712  
H75      H      0.717030000000     0.010100000000     0.733460000000     0.0990064  
H76      H      0.830770000000     0.156360000000     0.706890000000     0.0567595  
H77      H      0.779000000000     0.122250000000     0.648290000000     0.0578858  
H78      H      0.726740000000     0.154540000000     0.753440000000     0.0311336  
H79      H      0.771630000000     0.093900000000     0.792470000000     0.0196214  
H80      H      0.883290000000     0.042580000000     0.598340000000     0.0996342  
H81      H      0.153680000000     0.811930000000     0.676820000000     0.0283104  
H82      H      0.137050000000     0.850490000000     0.601680000000     0.0264901  
H83      H      0.122880000000     0.988330000000     0.784730000000     0.0983514  
H84      H      0.056530000000     0.920470000000     0.655260000000     0.057638   
H85      H      0.073040000000     0.881450000000     0.729880000000     0.052719   
H86      H      0.166810000000     0.962150000000     0.650100000000     0.0312751  
H87      H      0.186790000000     0.919100000000     0.721080000000     0.0185182  
H88      H      0.017880000000     0.806870000000     0.646960000000     0.0994553  
H89      H      0.011320000000     0.434010000000     0.461140000000     0.0303962  
H90      H      0.067410000000     0.372170000000     0.443070000000     0.0174171  
H91      H      0.950230000000     0.339960000000     0.639210000000     0.0987337  
H92      H      0.085310000000     0.349300000000     0.556450000000     0.0576101  
H93      H      0.036860000000     0.416180000000     0.579810000000     0.0615401  
H94      H      0.990200000000     0.295800000000     0.507970000000     0.0313631  
H95      H      0.942770000000     0.364030000000     0.528420000000     0.0191139  
H96      H      0.152250000000     0.439990000000     0.472440000000     0.0981659  
N1       N      0.813130000000     0.687890000000     0.055500000000    -0.235171   
N2       N      0.983780000000     0.532550000000     0.028280000000    -0.234855   
N3       N      0.329950000000     0.644070000000     0.080320000000    -0.236022   
N4       N      0.490290000000     0.568780000000     0.184800000000    -0.235078   
N5       N      0.565930000000     0.741860000000     0.004830000000    -0.23622    
N6       N      0.651020000000     0.957860000000     0.044790000000    -0.235549   
N7       N      0.657830000000     0.291300000000     0.209110000000    -0.235284   
N8       N      0.739380000000     0.511270000000     0.236240000000    -0.235996   
N9       N      0.467670000000     0.076740000000     0.824620000000    -0.235261   
N10      N      0.602480000000     0.200060000000     0.968860000000    -0.235302   
N11      N      0.611820000000     0.112440000000     0.486910000000    -0.234994   
N12      N      0.709290000000     0.043380000000     0.286130000000    -0.235441   
N13      N      0.100840000000     0.540710000000     0.724110000000    -0.235458   
N14      N      0.211590000000     0.472320000000     0.919260000000    -0.236295   
N15      N      0.070430000000     0.705370000000     0.394580000000    -0.234882   
N16      N      0.103670000000     0.705180000000     0.186000000000    -0.235754   
N17      N      0.372630000000     0.126990000000     0.585330000000    -0.235525   
N18      N      0.206700000000     0.246020000000     0.696320000000    -0.235721   
N19      N      0.703900000000     0.058130000000     0.728070000000    -0.234657   
N20      N      0.892230000000     0.061900000000     0.643280000000    -0.236367   
N21      N      0.124960000000     0.996510000000     0.735770000000    -0.235002   
N22      N      0.064020000000     0.791760000000     0.637410000000    -0.235014   
N23      N      0.973710000000     0.310240000000     0.606920000000    -0.235474   
N24      N      0.106670000000     0.455940000000     0.483070000000    -0.235355   
O1       O      0.028670000000     0.217400000000     0.589990000000    -0.562184   
O2       O      0.101320000000     0.063210000000     0.652630000000    -0.560622   
O3       O      0.987490000000     0.096870000000     0.607850000000    -0.564485   
O4       O      0.142260000000     0.184260000000     0.634370000000    -0.564014   
O5       O      0.111040000000     0.211800000000     0.732080000000    -0.562852   
O6       O      0.957880000000     0.120480000000     0.707070000000    -0.562375   
O7       O      0.073040000000     0.090550000000     0.751290000000    -0.56452    
O8       O      0.995690000000     0.241740000000     0.687940000000    -0.564794   
O9       O      0.043500000000     0.535180000000     0.522730000000    -0.563779   
O10      O      0.023350000000     0.698290000000     0.599880000000    -0.564381   
O11      O      0.026190000000     0.655330000000     0.479750000000    -0.563279   
O12      O      0.040750000000     0.577850000000     0.642440000000    -0.564474   
O13      O      0.145360000000     0.591690000000     0.639160000000    -0.562921   
O14      O      0.130580000000     0.670880000000     0.477760000000    -0.563945   
O15      O      0.127910000000     0.712810000000     0.597840000000    -0.560389   
O16      O      0.147920000000     0.550140000000     0.518750000000    -0.562716   
O17      O      0.495030000000     0.033550000000     0.729050000000    -0.561553   
O18      O      0.568930000000     0.049730000000     0.565100000000    -0.55939    
O19      O      0.612450000000     0.024480000000     0.682750000000    -0.565242   
O20      O      0.451470000000     0.058240000000     0.611590000000    -0.565581   
O21      O      0.464270000000     0.162910000000     0.630680000000    -0.56152    
O22      O      0.627860000000     0.129570000000     0.696930000000    -0.561923   
O23      O      0.580950000000     0.155040000000     0.581190000000    -0.565214   
O24      O      0.511490000000     0.138020000000     0.746260000000    -0.564499   
O25      O      0.606000000000     0.199670000000     0.182090000000    -0.563546   
O26      O      0.603000000000     0.035810000000     0.103680000000    -0.563241   
O27      O      0.630680000000     0.079420000000     0.220600000000    -0.560764   
O28      O      0.578490000000     0.155150000000     0.065050000000    -0.561083   
O29      O      0.679440000000     0.169460000000     0.037610000000    -0.565352   
O30      O      0.731510000000     0.089950000000     0.191100000000    -0.564548   
O31      O      0.703470000000     0.048470000000     0.073640000000    -0.564449   
O32      O      0.707350000000     0.210990000000     0.154670000000    -0.563486   
O33      O      0.190540000000     0.492320000000     0.023480000000    -0.563063   
O34      O      0.137070000000     0.605770000000     0.154260000000    -0.559609   
O35      O      0.079310000000     0.521820000000     0.076110000000    -0.564387   
O36      O      0.248380000000     0.575730000000     0.101810000000    -0.562998   
O37      O      0.235320000000     0.653690000000     0.030090000000    -0.563486   
O38      O      0.065670000000     0.600250000000     0.005020000000    -0.562538   
O39      O      0.123390000000     0.683440000000     0.082330000000    -0.567249   
O40      O      0.177690000000     0.570760000000     0.952260000000    -0.566105   
O41      O      0.693380000000     0.531520000000     0.140050000000    -0.562561   
O42      O      0.609810000000     0.644800000000     0.026710000000    -0.564405   
O43      O      0.730850000000     0.616840000000     0.052510000000    -0.561243   
O44      O      0.571970000000     0.559890000000     0.114260000000    -0.561438   
O45      O      0.575370000000     0.634720000000     0.190260000000    -0.566294   
O46      O      0.731370000000     0.695110000000     0.125080000000    -0.56508    
O47      O      0.609590000000     0.720590000000     0.101840000000    -0.564321   
O48      O      0.696950000000     0.608800000000     0.213590000000    -0.564833   
V1       V      0.066210000000     0.139350000000     0.617290000000     1.39316    
V2       V      0.033190000000     0.167170000000     0.723540000000     1.39443    
V3       V      0.029260000000     0.616140000000     0.561300000000     1.39735    
V4       V      0.142130000000     0.631990000000     0.558310000000     1.39417    
V5       V      0.531430000000     0.037280000000     0.646410000000     1.39398    
V6       V      0.546700000000     0.150590000000     0.664370000000     1.3957     
V7       V      0.600500000000     0.117100000000     0.144100000000     1.39199    
V8       V      0.709490000000     0.130190000000     0.113190000000     1.39935    
V9       V      0.164350000000     0.545770000000     0.091810000000     1.3926     
V10      V      0.149980000000     0.630100000000     0.014530000000     1.40166    
V11      V      0.651450000000     0.585110000000     0.080450000000     1.39128    
V12      V      0.653430000000     0.667860000000     0.160660000000     1.40241    


