data_structure

_audit_creation_method RASPA-1.0
_audit_creation_date 2023-5-19
_audit_author_name 'Poobodin Mano'

_cell_length_a    22.2164
_cell_length_b    19.7687
_cell_length_c    24.8139
_cell_angle_alpha 90
_cell_angle_beta  89.9998
_cell_angle_gamma 90
_cell_volume      10898

_symmetry_cell_setting          triclinic
_symmetry_space_group_name_Hall 'P 1'
_symmetry_space_group_name_H-M  'P 1'
_symmetry_Int_Tables_number     1

_symmetry_equiv_pos_as_xyz 'x,y,z'

loop_
_atom_site_label
_atom_site_type_symbol
_atom_site_fract_x
_atom_site_fract_y
_atom_site_fract_z
_atom_site_charge
C1       C      0.007130000000     0.325020000000     0.613000000000     0.48651    
C2       C      0.167230000000     0.143120000000     0.616720000000     0.48577    
C3       C      0.030260000000     0.170410000000     0.541140000000     0.486612   
C4       C      0.144030000000     0.296020000000     0.686470000000     0.486368   
C5       C      0.184280000000     0.613970000000     0.599940000000     0.486181   
C6       C      0.279510000000     0.825620000000     0.523380000000     0.4873     
C7       C      0.183780000000     0.696740000000     0.472010000000     0.487426   
C8       C      0.279730000000     0.743320000000     0.653020000000     0.48706    
C9       C      0.616600000000     0.197390000000     0.682280000000     0.486134   
C10      C      0.550310000000     0.269770000000     0.495850000000     0.485629   
C11      C      0.671960000000     0.171720000000     0.549310000000     0.48667    
C12      C      0.494450000000     0.295970000000     0.630080000000     0.485993   
C13      C      0.629110000000     0.334470000000     0.060780000000     0.487149   
C14      C      0.664180000000     0.096100000000     0.127860000000     0.487413   
C15      C      0.625020000000     0.253150000000     0.190680000000     0.486432   
C16      C      0.667800000000     0.178320000000     0.999440000000     0.48698    
C17      C      0.129830000000     0.746010000000     0.937780000000     0.486906   
C18      C      0.183350000000     0.668330000000     0.125970000000     0.486936   
C19      C      0.069930000000     0.624480000000     0.030420000000     0.486172   
C20      C      0.243410000000     0.790270000000     0.034450000000     0.486269   
C21      C      0.590870000000     0.654650000000     0.984600000000     0.486382   
C22      C      0.725630000000     0.758750000000     0.126380000000     0.486536   
C23      C      0.716140000000     0.596810000000     0.062890000000     0.485676   
C24      C      0.600510000000     0.816330000000     0.047250000000     0.486917   
C25      C      0.915550000000     0.549540000000     0.034180000000    -0.0830964  
C26      C      0.855880000000     0.563970000000     0.063250000000    -0.0797236  
C27      C      0.803320000000     0.524830000000     0.038110000000     0.0164363  
C28      C      0.965980000000     0.594460000000     0.056570000000     0.0130393  
C29      C      0.397260000000     0.859560000000     0.051070000000    -0.082589   
C30      C      0.461330000000     0.845870000000     0.030850000000    -0.0798222  
C31      C      0.508500000000     0.883720000000     0.064500000000     0.0156047  
C32      C      0.350760000000     0.819230000000     0.018520000000     0.0128492  
C33      C      0.798870000000     0.903860000000     0.172570000000    -0.0774052  
C34      C      0.741260000000     0.933190000000     0.147350000000    -0.078859   
C35      C      0.731440000000     0.006820000000     0.164620000000     0.0121885  
C36      C      0.812000000000     0.831690000000     0.153080000000     0.0115648  
C37      C      0.561830000000     0.492520000000     0.002940000000    -0.0764525  
C38      C      0.512700000000     0.511490000000     0.961930000000    -0.0764568  
C39      C      0.500360000000     0.587850000000     0.959830000000     0.0132297  
C40      C      0.566220000000     0.415640000000     0.010220000000     0.0118145  
C41      C      0.601480000000     0.118130000000     0.814180000000    -0.0796896  
C42      C      0.652920000000     0.137410000000     0.852700000000    -0.0808622  
C43      C      0.631700000000     0.136150000000     0.911500000000     0.0130401  
C44      C      0.622310000000     0.111310000000     0.755450000000     0.0122486  
C45      C      0.556010000000     0.260940000000     0.326290000000    -0.079569   
C46      C      0.494050000000     0.270830000000     0.352800000000    -0.0808081  
C47      C      0.493310000000     0.247920000000     0.411970000000     0.0131246  
C48      C      0.553860000000     0.276900000000     0.265770000000     0.0118523  
C49      C      0.194490000000     0.777160000000     0.819390000000    -0.0801701  
C50      C      0.224250000000     0.743720000000     0.770330000000    -0.0802772  
C51      C      0.273440000000     0.788920000000     0.746030000000     0.0168384  
C52      C      0.139710000000     0.736510000000     0.838360000000     0.0148734  
C53      C      0.194120000000     0.646510000000     0.276290000000    -0.0836946  
C54      C      0.164250000000     0.679880000000     0.325230000000    -0.081697   
C55      C      0.186910000000     0.650670000000     0.378710000000     0.0132249  
C56      C      0.170430000000     0.678380000000     0.224080000000     0.0144788  
C57      C      0.342690000000     0.347290000000     0.683430000000    -0.0840669  
C58      C      0.283630000000     0.311610000000     0.698130000000    -0.0786504  
C59      C      0.233700000000     0.362110000000     0.712850000000     0.0153629  
C60      C      0.390480000000     0.295850000000     0.665490000000     0.0139991  
C61      C      0.890320000000     0.153030000000     0.511710000000    -0.079323   
C62      C      0.829270000000     0.118120000000     0.519460000000    -0.0832236  
C63      C      0.778180000000     0.170330000000     0.519450000000     0.0133425  
C64      C      0.942560000000     0.102410000000     0.511420000000     0.0143378  
C65      C      0.267590000000     0.062270000000     0.539400000000    -0.0791591  
C66      C      0.280690000000     0.986830000000     0.548620000000    -0.0780422  
C67      C      0.274450000000     0.946580000000     0.496110000000     0.016471   
C68      C      0.269340000000     0.102630000000     0.592130000000     0.0152998  
C69      C      0.065630000000     0.490640000000     0.607650000000    -0.07793    
C70      C      0.996630000000     0.494080000000     0.610310000000    -0.076419   
C71      C      0.966660000000     0.435120000000     0.580130000000     0.0143143  
C72      C      0.095310000000     0.551570000000     0.635290000000     0.0107142  
H1       H      0.970650000000     0.585930000000     0.100670000000     0.0261623  
H2       H      0.953430000000     0.648300000000     0.049760000000     0.0352206  
H3       H      0.797670000000     0.539170000000     0.995050000000     0.0316479  
H4       H      0.812990000000     0.469660000000     0.039600000000     0.0203772  
H5       H      0.846090000000     0.619080000000     0.061250000000     0.0521971  
H6       H      0.860170000000     0.549500000000     0.106410000000     0.0427752  
H7       H      0.733970000000     0.502880000000     0.096680000000     0.100085   
H8       H      0.927700000000     0.495400000000     0.039710000000     0.0402755  
H9       H      0.910480000000     0.559720000000     0.990320000000     0.0440738  
H10      H      0.032100000000     0.530210000000     0.017110000000     0.0979447  
H11      H      0.360460000000     0.764350000000     0.023430000000     0.0350779  
H12      H      0.354410000000     0.832330000000     0.975070000000     0.0250225  
H13      H      0.497940000000     0.938710000000     0.064850000000     0.0207372  
H14      H      0.507810000000     0.865630000000     0.106950000000     0.0327304  
H15      H      0.464990000000     0.862290000000     0.988090000000     0.0425201  
H16      H      0.470680000000     0.790640000000     0.032780000000     0.0500954  
H17      H      0.582920000000     0.909700000000     0.012670000000     0.0996505  
H18      H      0.393710000000     0.845030000000     0.094270000000     0.0439986  
H19      H      0.387410000000     0.914540000000     0.047360000000     0.0398082  
H20      H      0.280290000000     0.884350000000     0.049620000000     0.0977436  
H21      H      0.852400000000     0.812410000000     0.174530000000     0.0201247  
H22      H      0.823080000000     0.832620000000     0.109390000000     0.0346921  
H23      H      0.731690000000     0.010490000000     0.209330000000     0.025071   
H24      H      0.769240000000     0.037800000000     0.148660000000     0.035474   
H25      H      0.701840000000     0.902630000000     0.160390000000     0.0488857  
H26      H      0.744370000000     0.930870000000     0.102650000000     0.0498887  
H27      H      0.635950000000     0.999560000000     0.147650000000     0.100365   
H28      H      0.837940000000     0.936420000000     0.161980000000     0.0351538  
H29      H      0.794410000000     0.903550000000     0.217220000000     0.0390852  
H30      H      0.749310000000     0.780160000000     0.205360000000     0.0980287  
H31      H      0.567470000000     0.390560000000     0.970100000000     0.0271037  
H32      H      0.525610000000     0.397760000000     0.032270000000     0.0334675  
H33      H      0.466070000000     0.597640000000     0.928170000000     0.0183134  
H34      H      0.480460000000     0.605110000000     0.998600000000     0.0329877  
H35      H      0.469970000000     0.485480000000     0.972710000000     0.0346879  
H36      H      0.526380000000     0.493840000000     0.921160000000     0.039942   
H37      H      0.568150000000     0.628340000000     0.906170000000     0.0977543  
H38      H      0.605800000000     0.512100000000     0.988280000000     0.049216   
H39      H      0.551830000000     0.515860000000     0.042720000000     0.0518418  
H40      H      0.658310000000     0.429280000000     0.037820000000     0.101821   
H41      H      0.585850000000     0.085320000000     0.732810000000     0.0351295  
H42      H      0.662880000000     0.078550000000     0.753050000000     0.0231691  
H43      H      0.591530000000     0.169460000000     0.915490000000     0.0334075  
H44      H      0.618710000000     0.083740000000     0.922880000000     0.0277105  
H45      H      0.669330000000     0.189110000000     0.843100000000     0.0442934  
H46      H      0.690900000000     0.101250000000     0.847900000000     0.0408715  
H47      H      0.724010000000     0.160040000000     0.934480000000     0.0980054  
H48      H      0.582450000000     0.068620000000     0.826970000000     0.0371357  
H49      H      0.564870000000     0.156400000000     0.816600000000     0.0448653  
H50      H      0.666780000000     0.208810000000     0.751700000000     0.0989497  
H51      H      0.536070000000     0.328850000000     0.259430000000     0.0248528  
H52      H      0.522860000000     0.240340000000     0.245980000000     0.0349924  
H53      H      0.446660000000     0.252610000000     0.427720000000     0.0256257  
H54      H      0.506510000000     0.193680000000     0.414050000000     0.0326912  
H55      H      0.459890000000     0.240670000000     0.330520000000     0.03671    
H56      H      0.480640000000     0.324960000000     0.350370000000     0.0394802  
H57      H      0.547800000000     0.336310000000     0.431510000000     0.0981534  
H58      H      0.589350000000     0.294740000000     0.346080000000     0.0449829  
H59      H      0.571070000000     0.207700000000     0.331700000000     0.0463691  
H60      H      0.650580000000     0.291180000000     0.264820000000     0.0988169  
H61      H      0.152230000000     0.682680000000     0.845170000000     0.0346234  
H62      H      0.104670000000     0.737200000000     0.806370000000     0.0202992  
H63      H      0.253490000000     0.836840000000     0.730730000000     0.0306124  
H64      H      0.306740000000     0.802330000000     0.777750000000     0.0197981  
H65      H      0.189500000000     0.733390000000     0.739150000000     0.0519097  
H66      H      0.244420000000     0.694640000000     0.782780000000     0.0439093  
H67      H      0.346480000000     0.731790000000     0.710790000000     0.0978942  
H68      H      0.227860000000     0.780660000000     0.852700000000     0.0481646  
H69      H      0.179570000000     0.829210000000     0.808800000000     0.0415853  
H70      H      0.085020000000     0.807350000000     0.883020000000     0.0973042  
H71      H      0.181040000000     0.733410000000     0.224110000000     0.0309328  
H72      H      0.120680000000     0.672110000000     0.222240000000     0.0297662  
H73      H      0.176210000000     0.595820000000     0.381000000000     0.0248034  
H74      H      0.236600000000     0.657250000000     0.380840000000     0.0339328  
H75      H      0.114670000000     0.672490000000     0.322710000000     0.0403915  
H76      H      0.173640000000     0.735170000000     0.324630000000     0.0438356  
H77      H      0.113000000000     0.702120000000     0.418370000000     0.0981456  
H78      H      0.243740000000     0.653510000000     0.278460000000     0.0418905  
H79      H      0.184000000000     0.591410000000     0.276250000000     0.0412862  
H80      H      0.227250000000     0.606440000000     0.180830000000     0.0978741  
H81      H      0.373830000000     0.268410000000     0.629270000000     0.0318553  
H82      H      0.398240000000     0.258560000000     0.698340000000     0.0282953  
H83      H      0.247590000000     0.392000000000     0.748710000000     0.0198381  
H84      H      0.225920000000     0.398190000000     0.679130000000     0.0319006  
H85      H      0.291450000000     0.277240000000     0.732930000000     0.0417441  
H86      H      0.268780000000     0.280380000000     0.663300000000     0.0510461  
H87      H      0.169220000000     0.314090000000     0.765690000000     0.0977083  
H88      H      0.334570000000     0.383730000000     0.650040000000     0.0434315  
H89      H      0.359480000000     0.375710000000     0.719080000000     0.041119   
H90      H      0.453950000000     0.379850000000     0.664310000000     0.0981946  
H91      H      0.935640000000     0.064800000000     0.478690000000     0.0202326  
H92      H      0.944480000000     0.074340000000     0.550240000000     0.0332963  
H93      H      0.787370000000     0.208250000000     0.551590000000     0.0355652  
H94      H      0.776790000000     0.196870000000     0.479960000000     0.0266796  
H95      H      0.829110000000     0.090410000000     0.558480000000     0.0439545  
H96      H      0.821780000000     0.081220000000     0.486300000000     0.040512   
H97      H      0.713650000000     0.087700000000     0.516250000000     0.0982263  
H98      H      0.890140000000     0.181060000000     0.472820000000     0.042085   
H99      H      0.897530000000     0.190110000000     0.544830000000     0.0488703  
H100     H      0.010700000000     0.148050000000     0.461480000000     0.0976978  
H101     H      0.279610000000     0.156530000000     0.583080000000     0.0316148  
H102     H      0.306480000000     0.084440000000     0.618440000000     0.0191633  
H103     H      0.226070000000     0.939540000000     0.485970000000     0.0319611  
H104     H      0.295370000000     0.975070000000     0.462280000000     0.019459   
H105     H      0.249090000000     0.965820000000     0.579070000000     0.0519645  
H106     H      0.327370000000     0.981410000000     0.564300000000     0.0423429  
H107     H      0.348340000000     0.877250000000     0.484850000000     0.0975437  
H108     H      0.302410000000     0.083140000000     0.511810000000     0.036833   
H109     H      0.223030000000     0.068850000000     0.519600000000     0.0491306  
H110     H      0.206000000000     0.055050000000     0.646410000000     0.0978148  
H111     H      0.093130000000     0.545210000000     0.679750000000     0.0251256  
H112     H      0.070290000000     0.598430000000     0.624630000000     0.0356789  
H113     H      0.919640000000     0.449920000000     0.570340000000     0.0184141  
H114     H      0.989380000000     0.425050000000     0.540970000000     0.0328882  
H115     H      0.981520000000     0.542060000000     0.591190000000     0.0363411  
H116     H      0.981450000000     0.494770000000     0.653030000000     0.0418079  
H117     H      0.929160000000     0.370220000000     0.641280000000     0.0975143  
H118     H      0.081930000000     0.443760000000     0.627540000000     0.053818   
H119     H      0.079640000000     0.489390000000     0.564600000000     0.0473845  
H120     H      0.184340000000     0.512020000000     0.619220000000     0.0985701  
N1       N      0.747670000000     0.538320000000     0.067900000000    -0.235053   
N2       N      0.023750000000     0.579490000000     0.030540000000    -0.233273   
N3       N      0.568230000000     0.874040000000     0.040890000000    -0.23422    
N4       N      0.289690000000     0.834950000000     0.037020000000    -0.233534   
N5       N      0.673300000000     0.031600000000     0.144730000000    -0.233119   
N6       N      0.761060000000     0.786910000000     0.164890000000    -0.232682   
N7       N      0.555050000000     0.625990000000     0.946600000000    -0.233059   
N8       N      0.620950000000     0.397180000000     0.039840000000    -0.23344    
N9       N      0.679340000000     0.159700000000     0.947850000000    -0.233608   
N10      N      0.636060000000     0.177600000000     0.731730000000    -0.232236   
N11      N      0.533610000000     0.289000000000     0.445510000000    -0.232538   
N12      N      0.614320000000     0.272830000000     0.242230000000    -0.232975   
N13      N      0.304630000000     0.753540000000     0.702310000000    -0.234454   
N14      N      0.114550000000     0.766520000000     0.887400000000    -0.233963   
N15      N      0.157440000000     0.685750000000     0.423520000000    -0.233918   
N16      N      0.197380000000     0.646980000000     0.176380000000    -0.233993   
N17      N      0.178070000000     0.325530000000     0.725310000000    -0.234354   
N18      N      0.447520000000     0.329460000000     0.652730000000    -0.233692   
N19      N      0.719870000000     0.137720000000     0.528880000000    -0.233431   
N20      N      0.998990000000     0.138560000000     0.501600000000    -0.233887   
N21      N      0.304780000000     0.881120000000     0.500550000000    -0.234482   
N22      N      0.212030000000     0.096710000000     0.621000000000    -0.23345    
N23      N      0.964590000000     0.374270000000     0.613700000000    -0.233473   
N24      N      0.158510000000     0.556280000000     0.618610000000    -0.233427   
O1       O      0.052350000000     0.329400000000     0.580890000000    -0.562672   
O2       O      0.173070000000     0.193390000000     0.584370000000    -0.563753   
O3       O      0.071390000000     0.212710000000     0.527800000000    -0.566389   
O4       O      0.154720000000     0.309070000000     0.636710000000    -0.567042   
O5       O      0.103530000000     0.253020000000     0.700180000000    -0.562947   
O6       O      0.017610000000     0.159070000000     0.590870000000    -0.561161   
O7       O      0.120300000000     0.136870000000     0.646480000000    -0.563653   
O8       O      0.001360000000     0.274720000000     0.645210000000    -0.565599   
O9       O      0.155770000000     0.670390000000     0.602880000000    -0.562788   
O10      O      0.227210000000     0.829470000000     0.545270000000    -0.560787   
O11      O      0.155250000000     0.731950000000     0.507060000000    -0.567487   
O12      O      0.227630000000     0.768020000000     0.642290000000    -0.565029   
O13      O      0.308480000000     0.707800000000     0.618230000000    -0.563538   
O14      O      0.236390000000     0.672790000000     0.482060000000    -0.560668   
O15      O      0.308440000000     0.769520000000     0.521750000000    -0.565826   
O16      O      0.236880000000     0.610680000000     0.578780000000    -0.565241   
O17      O      0.580320000000     0.159680000000     0.655450000000    -0.561832   
O18      O      0.530400000000     0.214070000000     0.515670000000    -0.56137    
O19      O      0.621800000000     0.140430000000     0.555290000000    -0.562935   
O20      O      0.488630000000     0.233600000000     0.616400000000    -0.560645   
O21      O      0.544330000000     0.327460000000     0.623120000000    -0.564826   
O22      O      0.677510000000     0.234160000000     0.562750000000    -0.562816   
O23      O      0.586170000000     0.307820000000     0.522790000000    -0.563771   
O24      O      0.635610000000     0.253680000000     0.662900000000    -0.563452   
O25      O      0.584650000000     0.293060000000     0.063270000000    -0.562498   
O26      O      0.610870000000     0.114390000000     0.114250000000    -0.563795   
O27      O      0.581450000000     0.232810000000     0.160740000000    -0.561334   
O28      O      0.613770000000     0.175260000000     0.017640000000    -0.562755   
O29      O      0.711280000000     0.199380000000     0.029090000000    -0.563605   
O30      O      0.679190000000     0.255050000000     0.172790000000    -0.563824   
O31      O      0.708570000000     0.137600000000     0.125450000000    -0.562764   
O32      O      0.681930000000     0.317020000000     0.076420000000    -0.564532   
O33      O      0.167280000000     0.697160000000     0.944080000000    -0.562029   
O34      O      0.206980000000     0.638290000000     0.085320000000    -0.563499   
O35      O      0.121710000000     0.605700000000     0.012940000000    -0.561446   
O36      O      0.252300000000     0.730040000000     0.016620000000    -0.560322   
O37      O      0.191210000000     0.809230000000     0.050530000000    -0.566527   
O38      O      0.061440000000     0.684700000000     0.048240000000    -0.56454    
O39      O      0.146610000000     0.717890000000     0.119690000000    -0.564044   
O40      O      0.105990000000     0.775810000000     0.978470000000    -0.565223   
O41      O      0.639270000000     0.684950000000     0.969890000000    -0.563091   
O42      O      0.740210000000     0.763690000000     0.076440000000    -0.562867   
O43      O      0.733210000000     0.641790000000     0.028820000000    -0.563523   
O44      O      0.646870000000     0.806750000000     0.017450000000    -0.565335   
O45      O      0.583480000000     0.771620000000     0.081620000000    -0.56272    
O46      O      0.670040000000     0.606480000000     0.093090000000    -0.564094   
O47      O      0.677530000000     0.727810000000     0.140850000000    -0.565856   
O48      O      0.576320000000     0.650320000000     0.034530000000    -0.567024   
V1       V      0.114810000000     0.263400000000     0.579840000000     1.39786    
V2       V      0.058560000000     0.203590000000     0.648150000000     1.39264    
V3       V      0.188320000000     0.752440000000     0.575460000000     1.39698    
V4       V      0.275800000000     0.687800000000     0.549220000000     1.39485    
V5       V      0.552950000000     0.183260000000     0.585390000000     1.39143    
V6       V      0.613100000000     0.284550000000     0.593150000000     1.39763    
V7       V      0.593750000000     0.202970000000     0.088640000000     1.39433    
V8       V      0.699140000000     0.228220000000     0.101450000000     1.3961     
V9       V      0.189520000000     0.664640000000     0.013310000000     1.38858    
V10      V      0.123900000000     0.750090000000     0.050550000000     1.40252    
V11      V      0.692460000000     0.725660000000     0.020570000000     1.39391    
V12      V      0.624340000000     0.687730000000     0.090140000000     1.39836    


