data_structure

_audit_creation_method RASPA-1.0
_audit_creation_date 2023-5-19
_audit_author_name 'Poobodin Mano'

_cell_length_a    21.0912
_cell_length_b    21.0993
_cell_length_c    21.0926
_cell_angle_alpha 90
_cell_angle_beta  90
_cell_angle_gamma 90
_cell_volume      9386.41

_symmetry_cell_setting          triclinic
_symmetry_space_group_name_Hall 'P 1'
_symmetry_space_group_name_H-M  'P 1'
_symmetry_Int_Tables_number     1

_symmetry_equiv_pos_as_xyz 'x,y,z'

loop_
_atom_site_label
_atom_site_type_symbol
_atom_site_fract_x
_atom_site_fract_y
_atom_site_fract_z
_atom_site_charge
C1       C      0.016170000000     0.135260000000     0.519050000000     0.477849   
C2       C      0.015730000000     0.895520000000     0.511820000000     0.478171   
C3       C      0.896090000000     0.016810000000     0.521350000000     0.477487   
C4       C      0.135770000000     0.014120000000     0.509510000000     0.478037   
C5       C      0.015730000000     0.395690000000     0.517280000000     0.476205   
C6       C      0.016320000000     0.635410000000     0.514680000000     0.476237   
C7       C      0.021400000000     0.516680000000     0.396270000000     0.475859   
C8       C      0.011050000000     0.515430000000     0.635840000000     0.475739   
C9       C      0.511210000000     0.020110000000     0.635820000000     0.476018   
C10      C      0.519440000000     0.012910000000     0.396360000000     0.475742   
C11      C      0.635580000000     0.018370000000     0.521290000000     0.475451   
C12      C      0.395930000000     0.014520000000     0.510830000000     0.475829   
C13      C      0.516440000000     0.134900000000     0.014920000000     0.477522   
C14      C      0.515830000000     0.894990000000     0.017060000000     0.477814   
C15      C      0.517980000000     0.014140000000     0.135960000000     0.477703   
C16      C      0.514260000000     0.015870000000     0.896030000000     0.477858   
C17      C      0.012410000000     0.513170000000     0.896380000000     0.476484   
C18      C      0.021660000000     0.519760000000     0.135960000000     0.476606   
C19      C      0.896720000000     0.517370000000     0.020000000000     0.477106   
C20      C      0.136360000000     0.514990000000     0.012400000000     0.477889   
C21      C      0.516320000000     0.395260000000     0.012480000000     0.475652   
C22      C      0.515080000000     0.634810000000     0.020010000000     0.476101   
C23      C      0.636060000000     0.515910000000     0.018180000000     0.476109   
C24      C      0.396350000000     0.514410000000     0.014300000000     0.477051   
C25      C      0.799500000000     0.558500000000     0.982010000000     0.0324226  
C26      C      0.799400000000     0.476730000000     0.058580000000     0.031572   
C27      C      0.733210000000     0.478470000000     0.060200000000     0.0314681  
C28      C      0.733420000000     0.555750000000     0.979110000000     0.0323494  
C29      C      0.232920000000     0.473220000000     0.050570000000     0.0328556  
C30      C      0.233690000000     0.555080000000     0.973980000000     0.0338408  
C31      C      0.299850000000     0.552490000000     0.972080000000     0.0336285  
C32      C      0.298990000000     0.475650000000     0.053710000000     0.0329426  
C33      C      0.557760000000     0.798210000000     0.055700000000     0.0325579  
C34      C      0.471780000000     0.797630000000     0.983790000000     0.0334917  
C35      C      0.473320000000     0.731570000000     0.982690000000     0.0334433  
C36      C      0.554760000000     0.732080000000     0.059700000000     0.0318848  
C37      C      0.472870000000     0.232390000000     0.048510000000     0.032359   
C38      C      0.558680000000     0.231710000000     0.976430000000     0.0331896  
C39      C      0.555930000000     0.297880000000     0.972660000000     0.0325124  
C40      C      0.474580000000     0.298440000000     0.049730000000     0.0323553  
C41      C      0.470160000000     0.982140000000     0.732780000000     0.0333395  
C42      C      0.550950000000     0.059800000000     0.732980000000     0.0317982  
C43      C      0.554680000000     0.055430000000     0.799030000000     0.0325734  
C44      C      0.469320000000     0.982810000000     0.798910000000     0.0334377  
C45      C      0.477410000000     0.049720000000     0.299600000000     0.0324544  
C46      C      0.559320000000     0.973250000000     0.298910000000     0.0325391  
C47      C      0.561550000000     0.976680000000     0.232650000000     0.0332445  
C48      C      0.475210000000     0.048120000000     0.233590000000     0.0324758  
C49      C      0.972560000000     0.472280000000     0.799080000000     0.0325764  
C50      C      0.049500000000     0.553710000000     0.799210000000     0.0322503  
C51      C      0.050430000000     0.553070000000     0.733280000000     0.0322979  
C52      C      0.968980000000     0.476150000000     0.732790000000     0.0323895  
C53      C      0.065030000000     0.481670000000     0.298880000000     0.0316428  
C54      C      0.984490000000     0.559550000000     0.299560000000     0.0332509  
C55      C      0.986940000000     0.562800000000     0.233500000000     0.0326124  
C56      C      0.062750000000     0.480310000000     0.232670000000     0.0323146  
C57      C      0.232760000000     0.053380000000     0.468730000000     0.0320026  
C58      C      0.232710000000     0.971010000000     0.544720000000     0.033809   
C59      C      0.298780000000     0.969230000000     0.542930000000     0.0332404  
C60      C      0.298970000000     0.056140000000     0.472180000000     0.0327495  
C61      C      0.799100000000     0.057050000000     0.482670000000     0.0325871  
C62      C      0.798840000000     0.982210000000     0.566030000000     0.0327358  
C63      C      0.732570000000     0.979960000000     0.563430000000     0.0323011  
C64      C      0.733070000000     0.059550000000     0.484580000000     0.03121    
C65      C      0.976400000000     0.798080000000     0.472230000000     0.0329894  
C66      C      0.058170000000     0.798990000000     0.548890000000     0.0327912  
C67      C      0.060180000000     0.732940000000     0.547630000000     0.0325413  
C68      C      0.973860000000     0.731930000000     0.476120000000     0.0334712  
C69      C      0.977240000000     0.232110000000     0.478770000000     0.0333458  
C70      C      0.052030000000     0.232680000000     0.562210000000     0.0317683  
C71      C      0.054620000000     0.298860000000     0.559060000000     0.031541   
C72      C      0.975140000000     0.298140000000     0.480070000000     0.0320635  
H1       H      0.824150000000     0.591100000000     0.950790000000     0.0318476  
H2       H      0.823990000000     0.444290000000     0.090000000000     0.0313443  
H3       H      0.708510000000     0.446630000000     0.092170000000     0.0313865  
H4       H      0.708880000000     0.587140000000     0.946590000000     0.0316466  
H5       H      0.207800000000     0.440850000000     0.081690000000     0.0282931  
H6       H      0.209180000000     0.587710000000     0.942680000000     0.0280485  
H7       H      0.325010000000     0.583820000000     0.939980000000     0.0280833  
H8       H      0.323470000000     0.444370000000     0.086400000000     0.0281047  
H9       H      0.592210000000     0.823230000000     0.084560000000     0.0294072  
H10      H      0.437820000000     0.822030000000     0.953820000000     0.0295985  
H11      H      0.440030000000     0.706650000000     0.952390000000     0.0293288  
H12      H      0.587840000000     0.707520000000     0.090470000000     0.0298542  
H13      H      0.438870000000     0.208080000000     0.078500000000     0.0296744  
H14      H      0.592980000000     0.206680000000     0.947420000000     0.0296955  
H15      H      0.589050000000     0.322400000000     0.941890000000     0.0302282  
H16      H      0.441320000000     0.323330000000     0.080080000000     0.0296665  
H17      H      0.436950000000     0.951660000000     0.707970000000     0.0294206  
H18      H      0.583600000000     0.090940000000     0.708300000000     0.0302242  
H19      H      0.589150000000     0.084430000000     0.823850000000     0.0295653  
H20      H      0.435890000000     0.952410000000     0.823490000000     0.0295648  
H21      H      0.444030000000     0.079900000000     0.324540000000     0.0298472  
H22      H      0.592740000000     0.942800000000     0.323400000000     0.0299896  
H23      H      0.595840000000     0.947770000000     0.207490000000     0.029526   
H24      H      0.440790000000     0.077700000000     0.209380000000     0.0297307  
H25      H      0.941590000000     0.439520000000     0.823810000000     0.0306897  
H26      H      0.081470000000     0.585680000000     0.823770000000     0.0305489  
H27      H      0.082610000000     0.585000000000     0.708950000000     0.0303596  
H28      H      0.936430000000     0.445170000000     0.707800000000     0.0306316  
H29      H      0.096760000000     0.449360000000     0.323250000000     0.0303396  
H30      H      0.952230000000     0.590880000000     0.324550000000     0.0301503  
H31      H      0.955730000000     0.595700000000     0.209230000000     0.0308619  
H32      H      0.093540000000     0.447620000000     0.207600000000     0.0298266  
H33      H      0.207970000000     0.086950000000     0.438670000000     0.0290961  
H34      H      0.207900000000     0.937530000000     0.574900000000     0.0285148  
H35      H      0.323340000000     0.934940000000     0.572370000000     0.0291541  
H36      H      0.323870000000     0.091010000000     0.443730000000     0.0287023  
H37      H      0.823870000000     0.087450000000     0.449380000000     0.0298831  
H38      H      0.823440000000     0.951380000000     0.599020000000     0.0306071  
H39      H      0.707640000000     0.948260000000     0.595330000000     0.0313556  
H40      H      0.708710000000     0.091100000000     0.452060000000     0.0313388  
H41      H      0.943050000000     0.822500000000     0.441610000000     0.0296299  
H42      H      0.091440000000     0.824090000000     0.579060000000     0.0288546  
H43      H      0.094410000000     0.708700000000     0.577410000000     0.0290676  
H44      H      0.939430000000     0.706730000000     0.447400000000     0.029036   
H45      H      0.946640000000     0.207250000000     0.445720000000     0.0300525  
H46      H      0.082640000000     0.208220000000     0.595520000000     0.0306836  
H47      H      0.086290000000     0.323850000000     0.590950000000     0.0314881  
H48      H      0.943660000000     0.322400000000     0.447420000000     0.0312584  
N1       N      0.832100000000     0.517730000000     0.020460000000    -0.1911     
N2       N      0.700670000000     0.516710000000     0.019190000000    -0.19099    
N3       N      0.200820000000     0.514270000000     0.012070000000    -0.191247   
N4       N      0.331900000000     0.514130000000     0.013310000000    -0.191136   
N5       N      0.515330000000     0.830470000000     0.018720000000    -0.191122   
N6       N      0.513960000000     0.699280000000     0.021530000000    -0.19093    
N7       N      0.516210000000     0.199460000000     0.013400000000    -0.191082   
N8       N      0.515280000000     0.330740000000     0.010950000000    -0.190768   
N9       N      0.510160000000     0.021490000000     0.700320000000    -0.190909   
N10      N      0.512960000000     0.017870000000     0.831520000000    -0.191195   
N11      N      0.518580000000     0.011380000000     0.331830000000    -0.190796   
N12      N      0.518500000000     0.013090000000     0.200530000000    -0.191152   
N13      N      0.011720000000     0.512320000000     0.831780000000    -0.190849   
N14      N      0.009290000000     0.515330000000     0.700410000000    -0.190813   
N15      N      0.024080000000     0.519520000000     0.331800000000    -0.190852   
N16      N      0.024250000000     0.521450000000     0.200470000000    -0.190985   
N17      N      0.200200000000     0.012370000000     0.506860000000    -0.191251   
N18      N      0.331430000000     0.013280000000     0.508450000000    -0.190771   
N19      N      0.831590000000     0.019060000000     0.523980000000    -0.19123    
N20      N      0.700170000000     0.019410000000     0.523350000000    -0.190663   
N21      N      0.017110000000     0.831060000000     0.510310000000    -0.191266   
N22      N      0.016650000000     0.699900000000     0.512880000000    -0.190922   
N23      N      0.014860000000     0.199790000000     0.520550000000    -0.191402   
N24      N      0.015260000000     0.331120000000     0.518800000000    -0.190884   
O1       O      0.012010000000     0.107070000000     0.465370000000    -0.558935   
O2       O      0.010910000000     0.927260000000     0.459930000000    -0.551775   
O3       O      0.923340000000     0.019570000000     0.467070000000    -0.557943   
O4       O      0.103100000000     0.018350000000     0.458140000000    -0.551952   
O5       O      0.108620000000     0.011110000000     0.563800000000    -0.557872   
O6       O      0.928790000000     0.012530000000     0.572710000000    -0.551183   
O7       O      0.019990000000     0.923650000000     0.565520000000    -0.55779    
O8       O      0.020940000000     0.103470000000     0.570940000000    -0.552076   
O9       O      0.963640000000     0.425870000000     0.507950000000    -0.553541   
O10      O      0.963190000000     0.605620000000     0.515790000000    -0.55253    
O11      O      0.967410000000     0.521550000000     0.423800000000    -0.555405   
O12      O      0.959550000000     0.510050000000     0.603500000000    -0.548595   
O13      O      0.064830000000     0.521210000000     0.608090000000    -0.558473   
O14      O      0.072620000000     0.509850000000     0.428740000000    -0.551871   
O15      O      0.069260000000     0.605240000000     0.515140000000    -0.554592   
O16      O      0.068170000000     0.425610000000     0.525180000000    -0.554425   
O17      O      0.507120000000     0.966500000000     0.607480000000    -0.555089   
O18      O      0.525710000000     0.961270000000     0.428300000000    -0.548637   
O19      O      0.606100000000     0.965510000000     0.527960000000    -0.552256   
O20      O      0.426880000000     0.962050000000     0.511320000000    -0.553006   
O21      O      0.424910000000     0.068040000000     0.513490000000    -0.553139   
O22      O      0.604960000000     0.070140000000     0.511620000000    -0.554124   
O23      O      0.512350000000     0.066310000000     0.424460000000    -0.558042   
O24      O      0.517410000000     0.071900000000     0.604180000000    -0.551723   
O25      O      0.463490000000     0.104940000000     0.017600000000    -0.556937   
O26      O      0.462970000000     0.925180000000     0.015870000000    -0.556534   
O27      O      0.464640000000     0.016070000000     0.106620000000    -0.557241   
O28      O      0.461800000000     0.014040000000     0.926870000000    -0.55668    
O29      O      0.567800000000     0.016300000000     0.925140000000    -0.552396   
O30      O      0.570630000000     0.013360000000     0.105310000000    -0.552838   
O31      O      0.569000000000     0.924740000000     0.016850000000    -0.552332   
O32      O      0.569440000000     0.104870000000     0.013610000000    -0.552857   
O33      O      0.007360000000     0.461240000000     0.928100000000    -0.547754   
O34      O      0.025080000000     0.466100000000     0.107580000000    -0.554658   
O35      O      0.926510000000     0.464720000000     0.026940000000    -0.553203   
O36      O      0.105830000000     0.462300000000     0.012300000000    -0.553786   
O37      O      0.107040000000     0.568340000000     0.014000000000    -0.554959   
O38      O      0.927070000000     0.569500000000     0.011590000000    -0.554994   
O39      O      0.014960000000     0.571510000000     0.104340000000    -0.553561   
O40      O      0.019350000000     0.566440000000     0.924760000000    -0.55939    
O41      O      0.523160000000     0.427120000000     0.960860000000    -0.549614   
O42      O      0.510510000000     0.606640000000     0.966350000000    -0.556283   
O43      O      0.606730000000     0.523690000000     0.965350000000    -0.553866   
O44      O      0.427110000000     0.513690000000     0.961740000000    -0.553635   
O45      O      0.425460000000     0.515450000000     0.067800000000    -0.554065   
O46      O      0.605240000000     0.507500000000     0.070030000000    -0.554364   
O47      O      0.520580000000     0.603000000000     0.071800000000    -0.550661   
O48      O      0.509970000000     0.423430000000     0.065960000000    -0.55713    
V1       V      0.012440000000     0.017850000000     0.458360000000     1.39673    
V2       V      0.019480000000     0.012870000000     0.572520000000     1.39531    
V3       V      0.959050000000     0.515700000000     0.512880000000     1.39128    
V4       V      0.073080000000     0.515390000000     0.519170000000     1.39746    
V5       V      0.516600000000     0.959450000000     0.518590000000     1.39164    
V6       V      0.514890000000     0.073480000000     0.513630000000     1.39552    
V7       V      0.459030000000     0.015060000000     0.016810000000     1.40443    
V8       V      0.573500000000     0.014790000000     0.015150000000     1.38655    
V9       V      0.016070000000     0.459200000000     0.018540000000     1.38628    
V10      V      0.017090000000     0.573290000000     0.013870000000     1.40023    
V11      V      0.517030000000     0.517600000000     0.959190000000     1.39534    
V12      V      0.515310000000     0.512510000000     0.073280000000     1.39431    


