data_structure

_audit_creation_method RASPA-1.0
_audit_creation_date 2023-5-19
_audit_author_name 'Poobodin Mano'

_cell_length_a    29.7792
_cell_length_b    29.7793
_cell_length_c    29.7792
_cell_angle_alpha 90
_cell_angle_beta  89.9998
_cell_angle_gamma 90
_cell_volume      26408.3

_symmetry_cell_setting          triclinic
_symmetry_space_group_name_Hall 'P 1'
_symmetry_space_group_name_H-M  'P 1'
_symmetry_Int_Tables_number     1

_symmetry_equiv_pos_as_xyz 'x,y,z'

loop_
_atom_site_label
_atom_site_type_symbol
_atom_site_fract_x
_atom_site_fract_y
_atom_site_fract_z
_atom_site_charge
C1       C      0.000730000000     0.086010000000     0.500700000000     0.478366   
C2       C      0.000810000000     0.915540000000     0.500740000000     0.478077   
C3       C      0.915540000000     0.000730000000     0.500720000000     0.478386   
C4       C      0.086010000000     0.000820000000     0.500720000000     0.47828    
C5       C      0.000700000000     0.415540000000     0.500740000000     0.478476   
C6       C      0.000750000000     0.586020000000     0.500810000000     0.478435   
C7       C      0.000730000000     0.500810000000     0.415540000000     0.478488   
C8       C      0.000730000000     0.500740000000     0.586020000000     0.478345   
C9       C      0.500780000000     0.000750000000     0.586010000000     0.478343   
C10      C      0.500780000000     0.000800000000     0.415530000000     0.478443   
C11      C      0.586010000000     0.000750000000     0.500770000000     0.478463   
C12      C      0.415540000000     0.000800000000     0.500770000000     0.47842    
C13      C      0.500790000000     0.086010000000     0.000740000000     0.478327   
C14      C      0.500840000000     0.915540000000     0.000810000000     0.478096   
C15      C      0.500820000000     0.000810000000     0.086010000000     0.478105   
C16      C      0.500820000000     0.000740000000     0.915530000000     0.478264   
C17      C      0.000770000000     0.500760000000     0.915540000000     0.478285   
C18      C      0.000770000000     0.500800000000     0.086020000000     0.478343   
C19      C      0.915530000000     0.500750000000     0.000790000000     0.47837    
C20      C      0.086010000000     0.500800000000     0.000790000000     0.478308   
C21      C      0.500730000000     0.415540000000     0.000810000000     0.478472   
C22      C      0.500820000000     0.586010000000     0.000850000000     0.478426   
C23      C      0.586010000000     0.500730000000     0.000830000000     0.478483   
C24      C      0.415530000000     0.500820000000     0.000830000000     0.478396   
C25      C      0.702280000000     0.509050000000     0.040390000000    -0.090934   
C26      C      0.726030000000     0.500700000000     0.000820000000     0.0342066  
C27      C      0.702280000000     0.492350000000     0.961260000000    -0.0907154  
C28      C      0.655380000000     0.493030000000     0.961730000000     0.0740105  
C29      C      0.655390000000     0.508380000000     0.039930000000     0.073749   
C30      C      0.775510000000     0.500710000000     0.000820000000     0.0342127  
C31      C      0.799270000000     0.461160000000     0.992460000000    -0.0906708  
C32      C      0.846160000000     0.461630000000     0.993120000000     0.0739846  
C33      C      0.846140000000     0.539830000000     0.008480000000     0.0737467  
C34      C      0.799250000000     0.540280000000     0.009160000000    -0.0909381  
C35      C      0.202290000000     0.461280000000     0.009190000000    -0.0909126  
C36      C      0.226030000000     0.500840000000     0.000820000000     0.0341859  
C37      C      0.202270000000     0.540390000000     0.992430000000    -0.0906876  
C38      C      0.155370000000     0.539910000000     0.993100000000     0.0740642  
C39      C      0.155390000000     0.461730000000     0.008510000000     0.0736736  
C40      C      0.275510000000     0.500850000000     0.000830000000     0.034217   
C41      C      0.299260000000     0.509230000000     0.961270000000    -0.0907132  
C42      C      0.346160000000     0.508550000000     0.961740000000     0.0740208  
C43      C      0.346150000000     0.493140000000     0.039920000000     0.0737602  
C44      C      0.299260000000     0.492470000000     0.040380000000    -0.0909486  
C45      C      0.461310000000     0.799260000000     0.009230000000    -0.0909117  
C46      C      0.500880000000     0.775520000000     0.000870000000     0.0342261  
C47      C      0.540430000000     0.799270000000     0.992500000000    -0.09074    
C48      C      0.539950000000     0.846170000000     0.993160000000     0.0740955  
C49      C      0.461760000000     0.846160000000     0.008540000000     0.0736856  
C50      C      0.500880000000     0.726030000000     0.000870000000     0.0342277  
C51      C      0.492510000000     0.702280000000     0.040430000000    -0.0909702  
C52      C      0.493170000000     0.655390000000     0.039960000000     0.0737731  
C53      C      0.508550000000     0.655390000000     0.961770000000     0.0740095  
C54      C      0.509240000000     0.702290000000     0.961310000000    -0.0907005  
C55      C      0.461190000000     0.202270000000     0.992380000000    -0.0906712  
C56      C      0.500740000000     0.226030000000     0.000750000000     0.0341947  
C57      C      0.540310000000     0.202300000000     0.009110000000    -0.0909446  
C58      C      0.539860000000     0.155400000000     0.008430000000     0.073758   
C59      C      0.461670000000     0.155380000000     0.993040000000     0.0739451  
C60      C      0.500720000000     0.275520000000     0.000770000000     0.0342264  
C61      C      0.492350000000     0.299280000000     0.961220000000    -0.0907201  
C62      C      0.493020000000     0.346170000000     0.961700000000     0.074023   
C63      C      0.508410000000     0.346150000000     0.039890000000     0.0737413  
C64      C      0.509090000000     0.299250000000     0.040340000000    -0.0909656  
C65      C      0.509180000000     0.040280000000     0.702290000000    -0.0909256  
C66      C      0.500810000000     0.000720000000     0.726030000000     0.0342389  
C67      C      0.492410000000     0.961180000000     0.702280000000    -0.0906918  
C68      C      0.493080000000     0.961650000000     0.655380000000     0.0740255  
C69      C      0.508500000000     0.039830000000     0.655390000000     0.0737359  
C70      C      0.500810000000     0.000710000000     0.775510000000     0.0341795  
C71      C      0.540370000000     0.009100000000     0.799260000000    -0.0909194  
C72      C      0.539910000000     0.008430000000     0.846150000000     0.0737385  
C73      C      0.461720000000     0.993010000000     0.846160000000     0.0739887  
C74      C      0.461260000000     0.992330000000     0.799270000000    -0.0906452  
C75      C      0.492450000000     0.040380000000     0.299270000000    -0.0909473  
C76      C      0.500800000000     0.000830000000     0.275510000000     0.0342021  
C77      C      0.509140000000     0.961260000000     0.299250000000    -0.0906728  
C78      C      0.508460000000     0.961710000000     0.346150000000     0.0739541  
C79      C      0.493110000000     0.039910000000     0.346160000000     0.0737668  
C80      C      0.500810000000     0.000840000000     0.226030000000     0.034211   
C81      C      0.540370000000     0.992490000000     0.202290000000    -0.0906901  
C82      C      0.539910000000     0.993160000000     0.155390000000     0.0740368  
C83      C      0.461720000000     0.008500000000     0.155380000000     0.0737215  
C84      C      0.461250000000     0.009180000000     0.202280000000    -0.0909405  
C85      C      0.040290000000     0.492330000000     0.702290000000    -0.0909769  
C86      C      0.000740000000     0.500720000000     0.726040000000     0.0342474  
C87      C      0.961180000000     0.509100000000     0.702300000000    -0.0907139  
C88      C      0.961640000000     0.508430000000     0.655400000000     0.0740177  
C89      C      0.039820000000     0.493010000000     0.655390000000     0.073773   
C90      C      0.000740000000     0.500730000000     0.775520000000     0.0341887  
C91      C      0.009130000000     0.461180000000     0.799280000000    -0.0909033  
C92      C      0.008470000000     0.461650000000     0.846170000000     0.0737142  
C93      C      0.993040000000     0.539830000000     0.846160000000     0.0740805  
C94      C      0.992360000000     0.540290000000     0.799270000000    -0.0907034  
C95      C      0.040290000000     0.509180000000     0.299270000000    -0.0909431  
C96      C      0.000730000000     0.500840000000     0.275520000000     0.0342278  
C97      C      0.961170000000     0.492490000000     0.299270000000    -0.0907383  
C98      C      0.961630000000     0.493160000000     0.346160000000     0.074017   
C99      C      0.039830000000     0.508510000000     0.346170000000     0.073735   
C100     C      0.000740000000     0.500830000000     0.226040000000     0.0341935  
C101     C      0.009090000000     0.540380000000     0.202290000000    -0.090917   
C102     C      0.008430000000     0.539910000000     0.155390000000     0.0737227  
C103     C      0.993080000000     0.461710000000     0.155400000000     0.0739594  
C104     C      0.992400000000     0.461260000000     0.202300000000    -0.0906685  
C105     C      0.299270000000     0.040390000000     0.509130000000    -0.0909836  
C106     C      0.275520000000     0.000840000000     0.500740000000     0.0342382  
C107     C      0.299260000000     0.961280000000     0.492360000000    -0.0907148  
C108     C      0.346150000000     0.961730000000     0.493050000000     0.0740475  
C109     C      0.346170000000     0.039910000000     0.508460000000     0.0737486  
C110     C      0.226030000000     0.000850000000     0.500730000000     0.0341859  
C111     C      0.202280000000     0.009230000000     0.540280000000    -0.0908972  
C112     C      0.155380000000     0.008550000000     0.539820000000     0.0736764  
C113     C      0.155390000000     0.993140000000     0.461630000000     0.0739929  
C114     C      0.202290000000     0.992470000000     0.461170000000    -0.0906696  
C115     C      0.702290000000     0.040280000000     0.492390000000    -0.090961   
C116     C      0.726030000000     0.000710000000     0.500740000000     0.0342319  
C117     C      0.702280000000     0.961160000000     0.509090000000    -0.0906882  
C118     C      0.655380000000     0.961630000000     0.508430000000     0.0739719  
C119     C      0.655400000000     0.039830000000     0.493080000000     0.0737845  
C120     C      0.775520000000     0.000700000000     0.500730000000     0.0342136  
C121     C      0.799270000000     0.992350000000     0.540290000000    -0.090697   
C122     C      0.846160000000     0.993030000000     0.539820000000     0.0740199  
C123     C      0.846160000000     0.008390000000     0.461620000000     0.0737377  
C124     C      0.799260000000     0.009050000000     0.461160000000    -0.0909412  
C125     C      0.009190000000     0.799280000000     0.540330000000    -0.0909416  
C126     C      0.000820000000     0.775520000000     0.500780000000     0.0342309  
C127     C      0.992460000000     0.799250000000     0.461220000000    -0.0906707  
C128     C      0.993140000000     0.846150000000     0.461660000000     0.0739894  
C129     C      0.008520000000     0.846180000000     0.539850000000     0.0737667  
C130     C      0.000800000000     0.726040000000     0.500800000000     0.034199   
C131     C      0.040350000000     0.702270000000     0.509170000000    -0.0909408  
C132     C      0.039870000000     0.655380000000     0.508510000000     0.0737881  
C133     C      0.961680000000     0.655410000000     0.493120000000     0.0739815  
C134     C      0.961240000000     0.702300000000     0.492440000000    -0.0906691  
C135     C      0.961120000000     0.299270000000     0.509060000000    -0.0906994  
C136     C      0.000670000000     0.275520000000     0.500680000000     0.0342274  
C137     C      0.040230000000     0.299260000000     0.492320000000    -0.0909541  
C138     C      0.039780000000     0.346160000000     0.493010000000     0.0737504  
C139     C      0.961590000000     0.346170000000     0.508400000000     0.0740084  
C140     C      0.000670000000     0.226040000000     0.500680000000     0.0341942  
C141     C      0.992310000000     0.202290000000     0.540240000000    -0.0906799  
C142     C      0.993000000000     0.155390000000     0.539780000000     0.0740098  
C143     C      0.008380000000     0.155390000000     0.461590000000     0.0736893  
C144     C      0.009040000000     0.202290000000     0.461130000000    -0.0909289  
H1       H      0.719870000000     0.485840000000     0.930090000000     0.0508213  
H2       H      0.638140000000     0.486640000000     0.930310000000     0.0220233  
H3       H      0.638150000000     0.514780000000     0.071350000000     0.0220373  
H4       H      0.719890000000     0.515560000000     0.071560000000     0.0507777  
H5       H      0.781680000000     0.429980000000     0.985960000000     0.0508236  
H6       H      0.863410000000     0.430220000000     0.986730000000     0.0220825  
H7       H      0.863380000000     0.571260000000     0.014860000000     0.0220519  
H8       H      0.781640000000     0.571450000000     0.015670000000     0.0507654  
H9       H      0.219860000000     0.571570000000     0.985910000000     0.0508035  
H10      H      0.138130000000     0.571330000000     0.986670000000     0.0220153  
H11      H      0.138160000000     0.430310000000     0.014920000000     0.0219849  
H12      H      0.219890000000     0.430110000000     0.015730000000     0.0507163  
H13      H      0.281670000000     0.515760000000     0.930100000000     0.0507967  
H14      H      0.363400000000     0.514960000000     0.930320000000     0.0220178  
H15      H      0.363390000000     0.486720000000     0.071340000000     0.0220213  
H16      H      0.281650000000     0.485940000000     0.071550000000     0.0507533  
H17      H      0.571600000000     0.781680000000     0.985990000000     0.0508639  
H18      H      0.571370000000     0.863410000000     0.986750000000     0.0220717  
H19      H      0.430340000000     0.863390000000     0.014940000000     0.0220503  
H20      H      0.430140000000     0.781660000000     0.015750000000     0.0507536  
H21      H      0.485990000000     0.719880000000     0.071600000000     0.0507905  
H22      H      0.486760000000     0.638150000000     0.071380000000     0.0220232  
H23      H      0.514940000000     0.638160000000     0.930350000000     0.0220231  
H24      H      0.515760000000     0.719890000000     0.930140000000     0.0508062  
H25      H      0.571480000000     0.219910000000     0.015630000000     0.0507366  
H26      H      0.571290000000     0.138170000000     0.014830000000     0.021988   
H27      H      0.430260000000     0.138130000000     0.986640000000     0.0220365  
H28      H      0.430010000000     0.219860000000     0.985870000000     0.0507934  
H29      H      0.485840000000     0.281690000000     0.930040000000     0.0507857  
H30      H      0.486620000000     0.363420000000     0.930280000000     0.022017   
H31      H      0.514810000000     0.363380000000     0.071310000000     0.0220296  
H32      H      0.515610000000     0.281640000000     0.071500000000     0.0507832  
H33      H      0.485880000000     0.930000000000     0.719870000000     0.0507866  
H34      H      0.486660000000     0.930230000000     0.638130000000     0.0220242  
H35      H      0.514920000000     0.071250000000     0.638160000000     0.0220305  
H36      H      0.515720000000     0.071450000000     0.719890000000     0.0507732  
H37      H      0.571540000000     0.015630000000     0.781660000000     0.0507589  
H38      H      0.571320000000     0.014850000000     0.863390000000     0.0220415  
H39      H      0.430310000000     0.986590000000     0.863400000000     0.0220783  
H40      H      0.430090000000     0.985800000000     0.781670000000     0.0508137  
H41      H      0.515650000000     0.930090000000     0.281650000000     0.0507867  
H42      H      0.514840000000     0.930290000000     0.363380000000     0.0220275  
H43      H      0.486720000000     0.071330000000     0.363410000000     0.0220197  
H44      H      0.485950000000     0.071560000000     0.281670000000     0.0507584  
H45      H      0.571550000000     0.985990000000     0.219890000000     0.0508051  
H46      H      0.571340000000     0.986770000000     0.138160000000     0.0220267  
H47      H      0.430290000000     0.014890000000     0.138140000000     0.0219926  
H48      H      0.430070000000     0.015680000000     0.219880000000     0.0507262  
H49      H      0.930010000000     0.515640000000     0.719890000000     0.0508061  
H50      H      0.930220000000     0.514860000000     0.638160000000     0.0220176  
H51      H      0.071240000000     0.486600000000     0.638150000000     0.0220165  
H52      H      0.071460000000     0.485800000000     0.719880000000     0.0507958  
H53      H      0.015660000000     0.430000000000     0.781690000000     0.0507358  
H54      H      0.014890000000     0.430240000000     0.863420000000     0.0220402  
H55      H      0.986630000000     0.571260000000     0.863390000000     0.0220707  
H56      H      0.985830000000     0.571450000000     0.781660000000     0.0508464  
H57      H      0.930000000000     0.485990000000     0.281670000000     0.0508005  
H58      H      0.930200000000     0.486770000000     0.363400000000     0.0220106  
H59      H      0.071250000000     0.514890000000     0.363410000000     0.0220214  
H60      H      0.071470000000     0.515680000000     0.281680000000     0.0507681  
H61      H      0.015590000000     0.571570000000     0.219880000000     0.0507196  
H62      H      0.014820000000     0.571330000000     0.138150000000     0.0219814  
H63      H      0.986700000000     0.430290000000     0.138170000000     0.0220302  
H64      H      0.985890000000     0.430090000000     0.219900000000     0.0508013  
H65      H      0.281650000000     0.930110000000     0.485830000000     0.0507777  
H66      H      0.363380000000     0.930310000000     0.486640000000     0.0220116  
H67      H      0.363420000000     0.071330000000     0.514880000000     0.0220293  
H68      H      0.281680000000     0.071560000000     0.515650000000     0.0507857  
H69      H      0.219870000000     0.015760000000     0.571460000000     0.05072    
H70      H      0.138140000000     0.014960000000     0.571230000000     0.0220007  
H71      H      0.138160000000     0.986720000000     0.430210000000     0.0220225  
H72      H      0.219890000000     0.985940000000     0.430000000000     0.0507934  
H73      H      0.719870000000     0.929980000000     0.515590000000     0.0507985  
H74      H      0.638130000000     0.930210000000     0.514830000000     0.0220367  
H75      H      0.638170000000     0.071260000000     0.486690000000     0.0220263  
H76      H      0.719900000000     0.071450000000     0.485880000000     0.0507852  
H77      H      0.781670000000     0.985840000000     0.571460000000     0.0508473  
H78      H      0.863410000000     0.986640000000     0.571240000000     0.0220953  
H79      H      0.863390000000     0.014780000000     0.430200000000     0.0220272  
H80      H      0.781660000000     0.015560000000     0.429990000000     0.0507627  
H81      H      0.985940000000     0.781650000000     0.430050000000     0.0508236  
H82      H      0.986730000000     0.863380000000     0.430240000000     0.022084   
H83      H      0.014920000000     0.863420000000     0.571270000000     0.0220368  
H84      H      0.015700000000     0.781690000000     0.571510000000     0.0507655  
H85      H      0.071530000000     0.719860000000     0.515690000000     0.0507757  
H86      H      0.071290000000     0.638130000000     0.514910000000     0.0220197  
H87      H      0.930250000000     0.638180000000     0.486720000000     0.0220239  
H88      H      0.930070000000     0.719910000000     0.485920000000     0.0507839  
H89      H      0.071400000000     0.281660000000     0.485800000000     0.05077    
H90      H      0.071210000000     0.363390000000     0.486620000000     0.0220203  
H91      H      0.930170000000     0.363410000000     0.514810000000     0.0220104  
H92      H      0.929940000000     0.281680000000     0.515570000000     0.0507795  
H93      H      0.985790000000     0.219890000000     0.571410000000     0.0508131  
H94      H      0.986600000000     0.138160000000     0.571210000000     0.0220387  
H95      H      0.014790000000     0.138150000000     0.430180000000     0.0219805  
H96      H      0.015550000000     0.219880000000     0.429950000000     0.0507219  
N1       N      0.632080000000     0.500710000000     0.000830000000    -0.207538   
N2       N      0.869460000000     0.500740000000     0.000790000000    -0.207491   
N3       N      0.132080000000     0.500820000000     0.000790000000    -0.207537   
N4       N      0.369460000000     0.500840000000     0.000830000000    -0.207544   
N5       N      0.500860000000     0.869460000000     0.000840000000    -0.207416   
N6       N      0.500840000000     0.632090000000     0.000860000000    -0.207486   
N7       N      0.500780000000     0.132090000000     0.000740000000    -0.207464   
N8       N      0.500720000000     0.369460000000     0.000800000000    -0.207489   
N9       N      0.500790000000     0.000740000000     0.632090000000    -0.207483   
N10      N      0.500820000000     0.000720000000     0.869460000000    -0.207481   
N11      N      0.500780000000     0.000810000000     0.369460000000    -0.207531   
N12      N      0.500820000000     0.000820000000     0.132090000000    -0.207452   
N13      N      0.000730000000     0.500730000000     0.632100000000    -0.207495   
N14      N      0.000760000000     0.500750000000     0.869470000000    -0.207504   
N15      N      0.000730000000     0.500830000000     0.369470000000    -0.207547   
N16      N      0.000760000000     0.500810000000     0.132100000000    -0.20747    
N17      N      0.369460000000     0.000810000000     0.500760000000    -0.207495   
N18      N      0.132090000000     0.000840000000     0.500720000000    -0.207452   
N19      N      0.632090000000     0.000740000000     0.500760000000    -0.207482   
N20      N      0.869460000000     0.000720000000     0.500720000000    -0.207453   
N21      N      0.000830000000     0.869460000000     0.500750000000    -0.207412   
N22      N      0.000770000000     0.632090000000     0.500820000000    -0.20754    
N23      N      0.000690000000     0.369460000000     0.500720000000    -0.207498   
N24      N      0.000700000000     0.132090000000     0.500690000000    -0.207469   
O1       O      0.002610000000     0.064490000000     0.463310000000    -0.557221   
O2       O      0.998940000000     0.937040000000     0.463330000000    -0.556406   
O3       O      0.937050000000     0.002600000000     0.463320000000    -0.557014   
O4       O      0.064500000000     0.998930000000     0.463320000000    -0.556672   
O5       O      0.064500000000     0.002690000000     0.538120000000    -0.556999   
O6       O      0.937050000000     0.998890000000     0.538120000000    -0.556593   
O7       O      0.002670000000     0.937060000000     0.538140000000    -0.556738   
O8       O      0.998870000000     0.064510000000     0.538110000000    -0.556705   
O9       O      0.963310000000     0.437060000000     0.502620000000    -0.557098   
O10      O      0.963350000000     0.564510000000     0.498940000000    -0.557122   
O11      O      0.963330000000     0.498950000000     0.437060000000    -0.557129   
O12      O      0.963330000000     0.502630000000     0.564500000000    -0.557078   
O13      O      0.038130000000     0.498870000000     0.564500000000    -0.557191   
O14      O      0.038130000000     0.502660000000     0.437060000000    -0.557216   
O15      O      0.038150000000     0.564490000000     0.502670000000    -0.557046   
O16      O      0.038110000000     0.437040000000     0.498880000000    -0.557218   
O17      O      0.498900000000     0.963360000000     0.564490000000    -0.55698    
O18      O      0.502630000000     0.963390000000     0.437040000000    -0.556992   
O19      O      0.564490000000     0.963360000000     0.502630000000    -0.55702    
O20      O      0.437040000000     0.963390000000     0.498890000000    -0.557022   
O21      O      0.437060000000     0.038190000000     0.502650000000    -0.557189   
O22      O      0.564510000000     0.038160000000     0.498910000000    -0.557207   
O23      O      0.498920000000     0.038190000000     0.437060000000    -0.557258   
O24      O      0.502660000000     0.038160000000     0.564500000000    -0.557151   
O25      O      0.463400000000     0.064490000000     0.998880000000    -0.556687   
O26      O      0.463430000000     0.937040000000     0.002670000000    -0.556836   
O27      O      0.463410000000     0.002660000000     0.064500000000    -0.556878   
O28      O      0.463420000000     0.998870000000     0.937050000000    -0.556514   
O29      O      0.538220000000     0.002630000000     0.937050000000    -0.556907   
O30      O      0.538220000000     0.998940000000     0.064500000000    -0.556623   
O31      O      0.538240000000     0.937060000000     0.998930000000    -0.556401   
O32      O      0.538200000000     0.064510000000     0.002620000000    -0.557108   
O33      O      0.002650000000     0.463360000000     0.937070000000    -0.556883   
O34      O      0.998910000000     0.463390000000     0.064520000000    -0.556673   
O35      O      0.937060000000     0.463360000000     0.998920000000    -0.556643   
O36      O      0.064500000000     0.463400000000     0.002660000000    -0.557174   
O37      O      0.064480000000     0.538200000000     0.998910000000    -0.556692   
O38      O      0.937030000000     0.538160000000     0.002640000000    -0.556816   
O39      O      0.002620000000     0.538190000000     0.064500000000    -0.557098   
O40      O      0.998890000000     0.538160000000     0.937050000000    -0.556566   
O41      O      0.498870000000     0.437060000000     0.963420000000    -0.557146   
O42      O      0.502670000000     0.564510000000     0.963450000000    -0.557004   
O43      O      0.564490000000     0.498880000000     0.963430000000    -0.557071   
O44      O      0.437050000000     0.502690000000     0.963430000000    -0.557028   
O45      O      0.437050000000     0.498930000000     0.038230000000    -0.557189   
O46      O      0.564500000000     0.502600000000     0.038230000000    -0.557135   
O47      O      0.498940000000     0.564490000000     0.038250000000    -0.557085   
O48      O      0.502610000000     0.437040000000     0.038220000000    -0.557205   
V1       V      0.000770000000     0.000770000000     0.460330000000     1.39366    
V2       V      0.000770000000     0.000790000000     0.541110000000     1.39347    
V3       V      0.960340000000     0.500790000000     0.500780000000     1.39531    
V4       V      0.041120000000     0.500760000000     0.500780000000     1.39448    
V5       V      0.500760000000     0.960390000000     0.500760000000     1.39486    
V6       V      0.500790000000     0.041160000000     0.500780000000     1.39454    
V7       V      0.460430000000     0.000760000000     0.000770000000     1.39345    
V8       V      0.541210000000     0.000790000000     0.000770000000     1.39359    
V9       V      0.000780000000     0.460390000000     0.000790000000     1.39382    
V10      V      0.000760000000     0.541170000000     0.000770000000     1.39356    
V11      V      0.500770000000     0.500780000000     0.960450000000     1.39507    
V12      V      0.500770000000     0.500760000000     0.041220000000     1.39432    


