data_structure

_audit_creation_method RASPA-1.0
_audit_creation_date 2023-5-23
_audit_author_name 'Poobodin Mano'

_cell_length_a    29.8912
_cell_length_b    29.8908
_cell_length_c    29.7797
_cell_angle_alpha 90
_cell_angle_beta  89.9999
_cell_angle_gamma 90
_cell_volume      26607.3

_symmetry_cell_setting          triclinic
_symmetry_space_group_name_Hall 'P 1'
_symmetry_space_group_name_H-M  'P 1'
_symmetry_Int_Tables_number     1

_symmetry_equiv_pos_as_xyz 'x,y,z'

loop_
_atom_site_label
_atom_site_type_symbol
_atom_site_fract_x
_atom_site_fract_y
_atom_site_fract_z
_atom_site_charge
C1       C      0.998880000000     0.998920000000     0.586030000000     0.477989   
C2       C      0.998920000000     0.998910000000     0.415570000000     0.477915   
C3       C      0.998900000000     0.914010000000     0.500800000000     0.478369   
C4       C      0.998900000000     0.083820000000     0.500790000000     0.478463   
C5       C      0.998890000000     0.498910000000     0.586010000000     0.478315   
C6       C      0.998910000000     0.498930000000     0.415550000000     0.478373   
C7       C      0.998900000000     0.583820000000     0.500790000000     0.478546   
C8       C      0.998900000000     0.414010000000     0.500770000000     0.478455   
C9       C      0.498920000000     0.998910000000     0.586210000000     0.478299   
C10      C      0.498890000000     0.998900000000     0.415740000000     0.47829    
C11      C      0.498930000000     0.083810000000     0.500950000000     0.478806   
C12      C      0.498880000000     0.914000000000     0.500970000000     0.47888    
C13      C      0.498920000000     0.498900000000     0.585760000000     0.478773   
C14      C      0.498890000000     0.498910000000     0.415300000000     0.47877    
C15      C      0.498930000000     0.414000000000     0.500530000000     0.478971   
C16      C      0.498880000000     0.583810000000     0.500550000000     0.478891   
C17      C      0.998870000000     0.998930000000     0.915570000000     0.477858   
C18      C      0.998940000000     0.998920000000     0.086030000000     0.477882   
C19      C      0.083810000000     0.998940000000     0.000770000000     0.477662   
C20      C      0.914000000000     0.998910000000     0.000840000000     0.477769   
C21      C      0.998870000000     0.498910000000     0.915550000000     0.478156   
C22      C      0.998920000000     0.498920000000     0.086010000000     0.478203   
C23      C      0.913990000000     0.498930000000     0.000800000000     0.478156   
C24      C      0.083800000000     0.498900000000     0.000750000000     0.478067   
C25      C      0.498940000000     0.998910000000     0.915750000000     0.478308   
C26      C      0.498870000000     0.998900000000     0.086200000000     0.478374   
C27      C      0.583810000000     0.998890000000     0.001010000000     0.477733   
C28      C      0.414000000000     0.998910000000     0.000940000000     0.477848   
C29      C      0.498920000000     0.498890000000     0.915300000000     0.478633   
C30      C      0.498870000000     0.498900000000     0.085760000000     0.478701   
C31      C      0.583800000000     0.498910000000     0.000560000000     0.478135   
C32      C      0.413990000000     0.498890000000     0.000510000000     0.47817    
C33      C      0.699630000000     0.460000000000     0.990440000000    -0.0888938  
C34      C      0.723870000000     0.498930000000     0.000680000000     0.0337852  
C35      C      0.699600000000     0.537860000000     0.010860000000    -0.0894063  
C36      C      0.652890000000     0.537420000000     0.010010000000     0.0737976  
C37      C      0.652910000000     0.460430000000     0.991210000000     0.0742475  
C38      C      0.773930000000     0.498930000000     0.000720000000     0.0337799  
C39      C      0.798170000000     0.460000000000     0.010960000000    -0.0894071  
C40      C      0.844890000000     0.460440000000     0.010180000000     0.0738156  
C41      C      0.844900000000     0.537430000000     0.991370000000     0.0741666  
C42      C      0.798180000000     0.537860000000     0.990530000000    -0.0888464  
C43      C      0.298170000000     0.537810000000     0.990340000000    -0.0889236  
C44      C      0.273930000000     0.498880000000     0.000580000000     0.0338278  
C45      C      0.298180000000     0.459950000000     0.010770000000    -0.0894335  
C46      C      0.344900000000     0.460390000000     0.009930000000     0.0738416  
C47      C      0.344890000000     0.537370000000     0.991120000000     0.0742526  
C48      C      0.223870000000     0.498880000000     0.000620000000     0.0337817  
C49      C      0.199630000000     0.537820000000     0.010860000000    -0.0893995  
C50      C      0.152920000000     0.537380000000     0.010090000000     0.073818   
C51      C      0.152890000000     0.460400000000     0.991290000000     0.0743159  
C52      C      0.199600000000     0.459950000000     0.990440000000    -0.0889294  
C53      C      0.798200000000     0.959970000000     0.011140000000    -0.0893907  
C54      C      0.773940000000     0.998900000000     0.000950000000     0.0335305  
C55      C      0.798170000000     0.037830000000     0.990720000000    -0.0886112  
C56      C      0.844890000000     0.037400000000     0.991490000000     0.0744346  
C57      C      0.844910000000     0.960410000000     0.010290000000     0.0736964  
C58      C      0.723880000000     0.998890000000     0.000980000000     0.0334844  
C59      C      0.699620000000     0.959960000000     0.990780000000    -0.0888639  
C60      C      0.652910000000     0.960400000000     0.991600000000     0.0741728  
C61      C      0.652920000000     0.037380000000     0.010410000000     0.0740028  
C62      C      0.699630000000     0.037820000000     0.011210000000    -0.089098   
C63      C      0.199630000000     0.960010000000     0.990570000000    -0.0888565  
C64      C      0.223880000000     0.998940000000     0.000800000000     0.0334959  
C65      C      0.199620000000     0.037870000000     0.011000000000    -0.0890643  
C66      C      0.152910000000     0.037430000000     0.010180000000     0.0740157  
C67      C      0.152920000000     0.960450000000     0.991360000000     0.0741671  
C68      C      0.273940000000     0.998930000000     0.000840000000     0.0335077  
C69      C      0.298180000000     0.960000000000     0.011060000000    -0.0893579  
C70      C      0.344890000000     0.960430000000     0.010290000000     0.0737319  
C71      C      0.344910000000     0.037420000000     0.991490000000     0.0744127  
C72      C      0.298200000000     0.037860000000     0.990650000000    -0.0885527  
C73      C      0.538220000000     0.490290000000     0.299020000000    -0.0908841  
C74      C      0.498870000000     0.498920000000     0.275270000000     0.0346219  
C75      C      0.459530000000     0.507540000000     0.299030000000    -0.0908599  
C76      C      0.459990000000     0.506860000000     0.345930000000     0.0739695  
C77      C      0.537770000000     0.490970000000     0.345920000000     0.0740455  
C78      C      0.498860000000     0.498910000000     0.225780000000     0.0346813  
C79      C      0.490220000000     0.538250000000     0.202030000000    -0.0909451  
C80      C      0.490900000000     0.537790000000     0.155130000000     0.0740583  
C81      C      0.506830000000     0.460020000000     0.155140000000     0.0739938  
C82      C      0.507510000000     0.459570000000     0.202030000000    -0.0909108  
C83      C      0.538280000000     0.507540000000     0.702020000000    -0.0909009  
C84      C      0.498940000000     0.498890000000     0.725780000000     0.0346531  
C85      C      0.459600000000     0.490240000000     0.702030000000    -0.0908542  
C86      C      0.460040000000     0.490920000000     0.655140000000     0.0739834  
C87      C      0.537820000000     0.506860000000     0.655130000000     0.0740285  
C88      C      0.498940000000     0.498890000000     0.775270000000     0.034654   
C89      C      0.490310000000     0.459540000000     0.799030000000    -0.0909013  
C90      C      0.490990000000     0.460000000000     0.845920000000     0.0740657  
C91      C      0.506890000000     0.537780000000     0.845920000000     0.0740357  
C92      C      0.507570000000     0.538230000000     0.799030000000    -0.0908681  
C93      C      0.507480000000     0.959550000000     0.202470000000    -0.0908483  
C94      C      0.498850000000     0.998890000000     0.226230000000     0.034357   
C95      C      0.490220000000     0.038240000000     0.202480000000    -0.0905803  
C96      C      0.490910000000     0.037780000000     0.155580000000     0.0741773  
C97      C      0.506810000000     0.960000000000     0.155580000000     0.073927   
C98      C      0.498860000000     0.998890000000     0.275720000000     0.0343267  
C99      C      0.459520000000     0.007540000000     0.299480000000    -0.0905063  
C100     C      0.459980000000     0.006860000000     0.346380000000     0.0741457  
C101     C      0.537760000000     0.990930000000     0.346360000000     0.0739464  
C102     C      0.538210000000     0.990240000000     0.299470000000    -0.0908806  
C103     C      0.538300000000     0.007540000000     0.702470000000    -0.0905785  
C104     C      0.498950000000     0.998920000000     0.726230000000     0.0343753  
C105     C      0.459600000000     0.990300000000     0.702480000000    -0.0908794  
C106     C      0.460050000000     0.990980000000     0.655590000000     0.073982   
C107     C      0.537830000000     0.006860000000     0.655570000000     0.0742098  
C108     C      0.498960000000     0.998910000000     0.775720000000     0.0343486  
C109     C      0.490320000000     0.959570000000     0.799470000000    -0.0908063  
C110     C      0.491000000000     0.960020000000     0.846370000000     0.0739173  
C111     C      0.506920000000     0.037800000000     0.846370000000     0.0742185  
C112     C      0.507600000000     0.038260000000     0.799480000000    -0.0905485  
C113     C      0.459930000000     0.798200000000     0.490650000000    -0.0894929  
C114     C      0.498860000000     0.773940000000     0.500810000000     0.0342678  
C115     C      0.537790000000     0.798170000000     0.511050000000    -0.0894392  
C116     C      0.537360000000     0.844880000000     0.510310000000     0.0739531  
C117     C      0.460370000000     0.844910000000     0.491520000000     0.073945   
C118     C      0.498860000000     0.723870000000     0.500730000000     0.0342601  
C119     C      0.459940000000     0.699610000000     0.510910000000    -0.089473   
C120     C      0.460380000000     0.652890000000     0.510030000000     0.0739796  
C121     C      0.537360000000     0.652930000000     0.491200000000     0.0739385  
C122     C      0.537790000000     0.699640000000     0.490470000000    -0.0894345  
C123     C      0.460020000000     0.199640000000     0.511040000000    -0.0894239  
C124     C      0.498950000000     0.223870000000     0.500770000000     0.0342509  
C125     C      0.537870000000     0.199610000000     0.490590000000    -0.0894137  
C126     C      0.537430000000     0.152890000000     0.491470000000     0.0739699  
C127     C      0.460450000000     0.152930000000     0.510300000000     0.0739525  
C128     C      0.498950000000     0.273940000000     0.500690000000     0.0342768  
C129     C      0.460020000000     0.298170000000     0.490450000000    -0.089474   
C130     C      0.460450000000     0.344880000000     0.491190000000     0.0739851  
C131     C      0.537440000000     0.344920000000     0.509990000000     0.0739373  
C132     C      0.537880000000     0.298200000000     0.510860000000    -0.0894319  
C133     C      0.959580000000     0.507560000000     0.299270000000    -0.0908924  
C134     C      0.998930000000     0.498930000000     0.275530000000     0.0343907  
C135     C      0.038270000000     0.490290000000     0.299280000000    -0.0906042  
C136     C      0.037810000000     0.490970000000     0.346180000000     0.0742197  
C137     C      0.960030000000     0.506880000000     0.346170000000     0.0739168  
C138     C      0.998940000000     0.498930000000     0.226030000000     0.0343547  
C139     C      0.007570000000     0.459580000000     0.202280000000    -0.0905699  
C140     C      0.006880000000     0.460030000000     0.155390000000     0.074203   
C141     C      0.990980000000     0.537810000000     0.155380000000     0.0739102  
C142     C      0.990310000000     0.538270000000     0.202280000000    -0.0908781  
C143     C      0.038210000000     0.507540000000     0.702280000000    -0.0905982  
C144     C      0.998870000000     0.498900000000     0.726030000000     0.0343858  
C145     C      0.959530000000     0.490260000000     0.702270000000    -0.0908455  
C146     C      0.959990000000     0.490950000000     0.655380000000     0.0739612  
C147     C      0.037760000000     0.506860000000     0.655390000000     0.074272   
C148     C      0.998860000000     0.498910000000     0.775530000000     0.0343565  
C149     C      0.990210000000     0.459560000000     0.799280000000    -0.0908188  
C150     C      0.990900000000     0.460020000000     0.846180000000     0.0739161  
C151     C      0.006830000000     0.537790000000     0.846170000000     0.0742811  
C152     C      0.007500000000     0.538250000000     0.799280000000    -0.0905572  
C153     C      0.038280000000     0.990270000000     0.299310000000    -0.0904854  
C154     C      0.998950000000     0.998910000000     0.275540000000     0.034016   
C155     C      0.959600000000     0.007550000000     0.299290000000    -0.0904352  
C156     C      0.960040000000     0.006860000000     0.346190000000     0.0740639  
C157     C      0.037820000000     0.990950000000     0.346200000000     0.0741008  
C158     C      0.998960000000     0.998910000000     0.226050000000     0.034055   
C159     C      0.990310000000     0.038260000000     0.202300000000    -0.0905109  
C160     C      0.990990000000     0.037810000000     0.155410000000     0.0740643  
C161     C      0.006920000000     0.960030000000     0.155400000000     0.0740748  
C162     C      0.007600000000     0.959570000000     0.202300000000    -0.0905019  
C163     C      0.990210000000     0.959590000000     0.799300000000    -0.0908007  
C164     C      0.998850000000     0.998940000000     0.775550000000     0.0340999  
C165     C      0.007480000000     0.038280000000     0.799300000000    -0.0902833  
C166     C      0.006800000000     0.037820000000     0.846190000000     0.0745166  
C167     C      0.990900000000     0.960050000000     0.846190000000     0.0738461  
C168     C      0.998850000000     0.998940000000     0.726050000000     0.0340504  
C169     C      0.038200000000     0.007570000000     0.702300000000    -0.0902268  
C170     C      0.037750000000     0.006890000000     0.655410000000     0.0744349  
C171     C      0.959970000000     0.990980000000     0.655400000000     0.0738033  
C172     C      0.959510000000     0.990300000000     0.702290000000    -0.0907878  
C173     C      0.037820000000     0.798200000000     0.511030000000    -0.0891379  
C174     C      0.998900000000     0.773950000000     0.500810000000     0.0339645  
C175     C      0.959970000000     0.798200000000     0.490590000000    -0.0894152  
C176     C      0.960410000000     0.844910000000     0.491400000000     0.0738794  
C177     C      0.037390000000     0.844910000000     0.510220000000     0.074144   
C178     C      0.998900000000     0.723890000000     0.500800000000     0.0339566  
C179     C      0.037830000000     0.699640000000     0.490600000000    -0.0891667  
C180     C      0.037390000000     0.652930000000     0.491400000000     0.0741812  
C181     C      0.960400000000     0.652920000000     0.510190000000     0.0738235  
C182     C      0.959970000000     0.699640000000     0.511010000000    -0.089366   
C183     C      0.959970000000     0.199640000000     0.510980000000    -0.0893279  
C184     C      0.998900000000     0.223890000000     0.500770000000     0.0339614  
C185     C      0.037830000000     0.199640000000     0.490570000000    -0.0891555  
C186     C      0.037390000000     0.152920000000     0.491390000000     0.0742047  
C187     C      0.960400000000     0.152920000000     0.510180000000     0.0738293  
C188     C      0.998900000000     0.273950000000     0.500770000000     0.033967   
C189     C      0.959970000000     0.298200000000     0.490550000000    -0.0894068  
C190     C      0.960410000000     0.344910000000     0.491360000000     0.0738907  
C191     C      0.037390000000     0.344910000000     0.510180000000     0.0741752  
C192     C      0.037830000000     0.298200000000     0.510990000000    -0.089145   
H1       H      0.716310000000     0.568610000000     0.020120000000     0.0486238  
H2       H      0.635680000000     0.568310000000     0.018100000000     0.0217793  
H3       H      0.635720000000     0.429530000000     0.983090000000     0.0218665  
H4       H      0.716360000000     0.429250000000     0.981210000000     0.0487996  
H5       H      0.781440000000     0.429250000000     0.020190000000     0.0486216  
H6       H      0.862080000000     0.429540000000     0.018300000000     0.0217588  
H7       H      0.862110000000     0.568330000000     0.983280000000     0.0218604  
H8       H      0.781470000000     0.568620000000     0.981270000000     0.0487635  
H9       H      0.281470000000     0.429200000000     0.020030000000     0.0486496  
H10      H      0.362110000000     0.429490000000     0.018030000000     0.0217911  
H11      H      0.362090000000     0.568270000000     0.983010000000     0.0218669  
H12      H      0.281450000000     0.568560000000     0.981100000000     0.0488188  
H13      H      0.216360000000     0.568570000000     0.020090000000     0.0486394  
H14      H      0.135720000000     0.568290000000     0.018210000000     0.0218182  
H15      H      0.135680000000     0.429500000000     0.983210000000     0.0218871  
H16      H      0.216310000000     0.429200000000     0.981180000000     0.0488316  
H17      H      0.781450000000     0.068580000000     0.981480000000     0.0487807  
H18      H      0.862080000000     0.068300000000     0.983370000000     0.0218413  
H19      H      0.862120000000     0.929510000000     0.018380000000     0.0217695  
H20      H      0.781490000000     0.929220000000     0.020390000000     0.0486033  
H21      H      0.716340000000     0.929210000000     0.981530000000     0.0487689  
H22      H      0.635700000000     0.929500000000     0.983500000000     0.021868   
H23      H      0.635710000000     0.068280000000     0.018520000000     0.0217887  
H24      H      0.716350000000     0.068570000000     0.020450000000     0.0486056  
H25      H      0.216340000000     0.068620000000     0.020260000000     0.0486088  
H26      H      0.135700000000     0.068330000000     0.018280000000     0.021817   
H27      H      0.135710000000     0.929550000000     0.983250000000     0.0219145  
H28      H      0.216350000000     0.929260000000     0.981330000000     0.0487943  
H29      H      0.281450000000     0.929250000000     0.020300000000     0.0486031  
H30      H      0.362080000000     0.929530000000     0.018400000000     0.021787   
H31      H      0.362130000000     0.068320000000     0.983400000000     0.0218794  
H32      H      0.281490000000     0.068620000000     0.981390000000     0.0487658  
H33      H      0.428510000000     0.514260000000     0.281450000000     0.05102    
H34      H      0.428740000000     0.513470000000     0.363170000000     0.0220861  
H35      H      0.569030000000     0.484370000000     0.363150000000     0.0220786  
H36      H      0.569230000000     0.483570000000     0.281420000000     0.0510237  
H37      H      0.483490000000     0.569260000000     0.219620000000     0.0510381  
H38      H      0.484280000000     0.569050000000     0.137890000000     0.0220432  
H39      H      0.513450000000     0.428760000000     0.137900000000     0.0220714  
H40      H      0.514240000000     0.428560000000     0.219630000000     0.0510261  
H41      H      0.428590000000     0.483500000000     0.719630000000     0.0510411  
H42      H      0.428790000000     0.484300000000     0.637900000000     0.0221073  
H43      H      0.569070000000     0.513490000000     0.637880000000     0.0220967  
H44      H      0.569290000000     0.514270000000     0.719610000000     0.0510567  
H45      H      0.483590000000     0.428530000000     0.781440000000     0.051079   
H46      H      0.484380000000     0.428740000000     0.863160000000     0.0221459  
H47      H      0.513490000000     0.569040000000     0.863160000000     0.0221404  
H48      H      0.514300000000     0.569240000000     0.781430000000     0.0510508  
H49      H      0.483500000000     0.069250000000     0.220070000000     0.0510167  
H50      H      0.484300000000     0.069040000000     0.138340000000     0.0220636  
H51      H      0.513420000000     0.928750000000     0.138340000000     0.0220597  
H52      H      0.514210000000     0.928540000000     0.220070000000     0.0509876  
H53      H      0.428510000000     0.014280000000     0.281890000000     0.0510304  
H54      H      0.428740000000     0.013490000000     0.363620000000     0.02213    
H55      H      0.569010000000     0.984300000000     0.363600000000     0.0220592  
H56      H      0.569210000000     0.983510000000     0.281870000000     0.0509847  
H57      H      0.428590000000     0.983580000000     0.720080000000     0.0510061  
H58      H      0.428780000000     0.984370000000     0.638350000000     0.0220711  
H59      H      0.569080000000     0.013460000000     0.638320000000     0.0221249  
H60      H      0.569310000000     0.014260000000     0.720050000000     0.0510858  
H61      H      0.483590000000     0.928560000000     0.781880000000     0.0510262  
H62      H      0.484380000000     0.928770000000     0.863600000000     0.0221497  
H63      H      0.513530000000     0.069050000000     0.863620000000     0.022149   
H64      H      0.514330000000     0.069270000000     0.781890000000     0.0510452  
H65      H      0.568550000000     0.781430000000     0.520270000000     0.0487246  
H66      H      0.568260000000     0.862070000000     0.518430000000     0.0217914  
H67      H      0.429470000000     0.862130000000     0.483440000000     0.0217932  
H68      H      0.429180000000     0.781500000000     0.481380000000     0.0487639  
H69      H      0.429190000000     0.716310000000     0.520190000000     0.0487628  
H70      H      0.429480000000     0.635680000000     0.518120000000     0.0218     
H71      H      0.568260000000     0.635740000000     0.483070000000     0.0218156  
H72      H      0.568540000000     0.716380000000     0.481230000000     0.0487298  
H73      H      0.568630000000     0.216310000000     0.481310000000     0.0487438  
H74      H      0.568330000000     0.135680000000     0.483380000000     0.0218368  
H75      H      0.429550000000     0.135740000000     0.518430000000     0.0218607  
H76      H      0.429270000000     0.216380000000     0.520270000000     0.0487614  
H77      H      0.429270000000     0.281430000000     0.481230000000     0.0487678  
H78      H      0.429550000000     0.362070000000     0.483070000000     0.0218108  
H79      H      0.568340000000     0.362130000000     0.518060000000     0.0218176  
H80      H      0.568640000000     0.281500000000     0.520120000000     0.0487563  
H81      H      0.069280000000     0.483570000000     0.281690000000     0.0510267  
H82      H      0.069060000000     0.484360000000     0.363420000000     0.0220785  
H83      H      0.928780000000     0.513500000000     0.363410000000     0.0220886  
H84      H      0.928580000000     0.514290000000     0.281680000000     0.0510254  
H85      H      0.014290000000     0.428570000000     0.219880000000     0.0510407  
H86      H      0.013490000000     0.428780000000     0.138150000000     0.0220885  
H87      H      0.984380000000     0.569070000000     0.138140000000     0.022032   
H88      H      0.983590000000     0.569280000000     0.219870000000     0.0509734  
H89      H      0.928510000000     0.483540000000     0.719860000000     0.051014   
H90      H      0.928730000000     0.484330000000     0.638130000000     0.022097   
H91      H      0.069020000000     0.513480000000     0.638160000000     0.0220725  
H92      H      0.069220000000     0.514270000000     0.719880000000     0.0510381  
H93      H      0.983480000000     0.428550000000     0.781690000000     0.0510061  
H94      H      0.984280000000     0.428770000000     0.863420000000     0.0221303  
H95      H      0.013450000000     0.569050000000     0.863410000000     0.0221615  
H96      H      0.014240000000     0.569260000000     0.781680000000     0.0510631  
H97      H      0.928590000000     0.014280000000     0.281690000000     0.0509834  
H98      H      0.928790000000     0.013480000000     0.363420000000     0.0221343  
H99      H      0.069070000000     0.984330000000     0.363450000000     0.0220671  
H100     H      0.069300000000     0.983540000000     0.281720000000     0.050927   
H101     H      0.983580000000     0.069270000000     0.219900000000     0.0509387  
H102     H      0.984370000000     0.069060000000     0.138170000000     0.0220476  
H103     H      0.013540000000     0.928780000000     0.138160000000     0.022104   
H104     H      0.014330000000     0.928560000000     0.219890000000     0.0510038  
H105     H      0.014200000000     0.069290000000     0.781700000000     0.0510695  
H106     H      0.013420000000     0.069080000000     0.863430000000     0.0221537  
H107     H      0.984290000000     0.928790000000     0.863430000000     0.022131   
H108     H      0.983490000000     0.928580000000     0.781700000000     0.050972   
H109     H      0.069210000000     0.014300000000     0.719900000000     0.0510414  
H110     H      0.069010000000     0.013500000000     0.638180000000     0.0221153  
H111     H      0.928720000000     0.984360000000     0.638150000000     0.0220939  
H112     H      0.928500000000     0.983570000000     0.719880000000     0.0509628  
H113     H      0.929220000000     0.781480000000     0.481330000000     0.0487126  
H114     H      0.929500000000     0.862110000000     0.483280000000     0.0217898  
H115     H      0.068280000000     0.862120000000     0.518330000000     0.0217948  
H116     H      0.068570000000     0.781480000000     0.520290000000     0.0487208  
H117     H      0.068580000000     0.716360000000     0.481360000000     0.0487372  
H118     H      0.068290000000     0.635720000000     0.483300000000     0.0218053  
H119     H      0.929500000000     0.635720000000     0.518290000000     0.0218197  
H120     H      0.929210000000     0.716350000000     0.520250000000     0.0487096  
H121     H      0.068580000000     0.216350000000     0.481330000000     0.0487642  
H122     H      0.068290000000     0.135720000000     0.483290000000     0.0218316  
H123     H      0.929500000000     0.135720000000     0.518280000000     0.0218657  
H124     H      0.929210000000     0.216360000000     0.520220000000     0.0487147  
H125     H      0.929220000000     0.281480000000     0.481290000000     0.0487301  
H126     H      0.929510000000     0.362110000000     0.483250000000     0.0218119  
H127     H      0.068290000000     0.362110000000     0.518290000000     0.021808   
H128     H      0.068580000000     0.281480000000     0.520240000000     0.048746   
N1       N      0.629700000000     0.498920000000     0.000590000000    -0.207575   
N2       N      0.868100000000     0.498930000000     0.000790000000    -0.207624   
N3       N      0.368100000000     0.498880000000     0.000520000000    -0.20765    
N4       N      0.129700000000     0.498890000000     0.000710000000    -0.207575   
N5       N      0.868110000000     0.998910000000     0.000870000000    -0.207719   
N6       N      0.629710000000     0.998890000000     0.001010000000    -0.207678   
N7       N      0.129710000000     0.998940000000     0.000770000000    -0.207645   
N8       N      0.368110000000     0.998920000000     0.000910000000    -0.207727   
N9       N      0.498890000000     0.498920000000     0.369220000000    -0.207372   
N10      N      0.498870000000     0.498910000000     0.131830000000    -0.207421   
N11      N      0.498930000000     0.498890000000     0.631830000000    -0.207397   
N12      N      0.498930000000     0.498890000000     0.869220000000    -0.207323   
N13      N      0.498860000000     0.998890000000     0.132280000000    -0.207458   
N14      N      0.498880000000     0.998890000000     0.369670000000    -0.207481   
N15      N      0.498930000000     0.998920000000     0.632280000000    -0.207516   
N16      N      0.498960000000     0.998910000000     0.869670000000    -0.207404   
N17      N      0.498870000000     0.868110000000     0.500940000000    -0.207516   
N18      N      0.498870000000     0.629700000000     0.500590000000    -0.207519   
N19      N      0.498940000000     0.129700000000     0.500910000000    -0.207487   
N20      N      0.498940000000     0.368110000000     0.500560000000    -0.207524   
N21      N      0.998920000000     0.498930000000     0.369470000000    -0.20746    
N22      N      0.998930000000     0.498920000000     0.132090000000    -0.207446   
N23      N      0.998880000000     0.498910000000     0.632090000000    -0.207479   
N24      N      0.998870000000     0.498910000000     0.869470000000    -0.207414   
N25      N      0.998930000000     0.998910000000     0.369490000000    -0.207523   
N26      N      0.998950000000     0.998920000000     0.132100000000    -0.207562   
N27      N      0.998860000000     0.998940000000     0.869490000000    -0.207527   
N28      N      0.998870000000     0.998930000000     0.632100000000    -0.207585   
N29      N      0.998900000000     0.868120000000     0.500810000000    -0.207604   
N30      N      0.998900000000     0.629720000000     0.500790000000    -0.207565   
N31      N      0.998900000000     0.129720000000     0.500780000000    -0.207539   
N32      N      0.998900000000     0.368120000000     0.500770000000    -0.207614   
O1       O      0.961630000000     0.996850000000     0.564510000000    -0.556866   
O2       O      0.961660000000     0.000990000000     0.437070000000    -0.556459   
O3       O      0.961650000000     0.935440000000     0.498660000000    -0.556939   
O4       O      0.961650000000     0.062400000000     0.502920000000    -0.556815   
O5       O      0.036150000000     0.062400000000     0.498670000000    -0.556694   
O6       O      0.036150000000     0.935440000000     0.502950000000    -0.556793   
O7       O      0.036160000000     0.996830000000     0.437090000000    -0.556822   
O8       O      0.036130000000     0.001000000000     0.564520000000    -0.556484   
O9       O      0.036140000000     0.500990000000     0.564500000000    -0.556888   
O10      O      0.036160000000     0.496840000000     0.437070000000    -0.55697    
O11      O      0.036150000000     0.562400000000     0.498660000000    -0.556986   
O12      O      0.036150000000     0.435440000000     0.502910000000    -0.556875   
O13      O      0.961650000000     0.435440000000     0.498630000000    -0.557029   
O14      O      0.961650000000     0.562400000000     0.502910000000    -0.557139   
O15      O      0.961660000000     0.501000000000     0.437060000000    -0.557171   
O16      O      0.961640000000     0.496830000000     0.564490000000    -0.557007   
O17      O      0.536170000000     0.000980000000     0.564680000000    -0.556667   
O18      O      0.536140000000     0.996810000000     0.437250000000    -0.557023   
O19      O      0.536170000000     0.062370000000     0.498820000000    -0.556939   
O20      O      0.536140000000     0.935410000000     0.503100000000    -0.557105   
O21      O      0.461640000000     0.935440000000     0.498850000000    -0.557137   
O22      O      0.461670000000     0.062400000000     0.503110000000    -0.556848   
O23      O      0.461640000000     0.000990000000     0.437260000000    -0.556553   
O24      O      0.461670000000     0.996840000000     0.564700000000    -0.556994   
O25      O      0.461670000000     0.496810000000     0.564250000000    -0.557281   
O26      O      0.461650000000     0.500980000000     0.436820000000    -0.55725    
O27      O      0.461670000000     0.435410000000     0.498400000000    -0.557209   
O28      O      0.461640000000     0.562370000000     0.502680000000    -0.557235   
O29      O      0.536140000000     0.562400000000     0.498400000000    -0.557103   
O30      O      0.536170000000     0.435430000000     0.502650000000    -0.557125   
O31      O      0.536150000000     0.496840000000     0.436800000000    -0.557077   
O32      O      0.536170000000     0.500990000000     0.564240000000    -0.557068   
O33      O      0.000950000000     0.036180000000     0.937080000000    -0.555928   
O34      O      0.996850000000     0.036170000000     0.064520000000    -0.556638   
O35      O      0.062380000000     0.036180000000     0.002910000000    -0.556455   
O36      O      0.935420000000     0.036170000000     0.998690000000    -0.55594    
O37      O      0.935430000000     0.961670000000     0.002960000000    -0.556846   
O38      O      0.062390000000     0.961680000000     0.998640000000    -0.555854   
O39      O      0.001020000000     0.961670000000     0.064510000000    -0.556457   
O40      O      0.996810000000     0.961680000000     0.937080000000    -0.556507   
O41      O      0.996790000000     0.461660000000     0.937070000000    -0.556629   
O42      O      0.000990000000     0.461670000000     0.064500000000    -0.556486   
O43      O      0.935410000000     0.461670000000     0.002930000000    -0.556813   
O44      O      0.062370000000     0.461650000000     0.998630000000    -0.556015   
O45      O      0.062380000000     0.536150000000     0.002890000000    -0.556719   
O46      O      0.935420000000     0.536170000000     0.998660000000    -0.556353   
O47      O      0.996840000000     0.536170000000     0.064490000000    -0.557001   
O48      O      0.000960000000     0.536160000000     0.937060000000    -0.556196   
O49      O      0.501020000000     0.036160000000     0.937260000000    -0.55646    
O50      O      0.496810000000     0.036150000000     0.064690000000    -0.556897   
O51      O      0.562390000000     0.036150000000     0.003140000000    -0.556586   
O52      O      0.435430000000     0.036160000000     0.998820000000    -0.556069   
O53      O      0.435420000000     0.961660000000     0.003080000000    -0.556911   
O54      O      0.562380000000     0.961650000000     0.998860000000    -0.556305   
O55      O      0.500950000000     0.961650000000     0.064690000000    -0.556993   
O56      O      0.496850000000     0.961660000000     0.937260000000    -0.556767   
O57      O      0.500990000000     0.536140000000     0.936810000000    -0.556727   
O58      O      0.496800000000     0.536150000000     0.064240000000    -0.5571     
O59      O      0.562370000000     0.536160000000     0.002680000000    -0.556914   
O60      O      0.435410000000     0.536140000000     0.998380000000    -0.556353   
O61      O      0.435420000000     0.461640000000     0.002650000000    -0.556873   
O62      O      0.562390000000     0.461660000000     0.998420000000    -0.556222   
O63      O      0.500960000000     0.461650000000     0.064250000000    -0.556973   
O64      O      0.496840000000     0.461640000000     0.936810000000    -0.556671   
V1       V      0.958660000000     0.998920000000     0.500790000000     1.3932     
V2       V      0.039130000000     0.998920000000     0.500810000000     1.39417    
V3       V      0.039130000000     0.498920000000     0.500780000000     1.39482    
V4       V      0.958660000000     0.498920000000     0.500770000000     1.39406    
V5       V      0.539140000000     0.998890000000     0.500970000000     1.39391    
V6       V      0.458670000000     0.998920000000     0.500980000000     1.39368    
V7       V      0.458670000000     0.498890000000     0.500540000000     1.39465    
V8       V      0.539140000000     0.498920000000     0.500520000000     1.39412    
V9       V      0.998900000000     0.039160000000     0.000800000000     1.39289    
V10      V      0.998910000000     0.958690000000     0.000800000000     1.39235    
V11      V      0.998890000000     0.458680000000     0.000780000000     1.39273    
V12      V      0.998900000000     0.539150000000     0.000780000000     1.39289    
V13      V      0.498910000000     0.039140000000     0.000980000000     1.39356    
V14      V      0.498900000000     0.958670000000     0.000970000000     1.3932     
V15      V      0.498890000000     0.539130000000     0.000530000000     1.39338    
V16      V      0.498900000000     0.458670000000     0.000530000000     1.39302    


