data_structure

_audit_creation_method RASPA-1.0
_audit_creation_date 2023-5-23
_audit_author_name 'Poobodin Mano'

_cell_length_a    29.7775
_cell_length_b    29.7775
_cell_length_c    29.8937
_cell_angle_alpha 90
_cell_angle_beta  89.9998
_cell_angle_gamma 89.9998
_cell_volume      26506.7

_symmetry_cell_setting          triclinic
_symmetry_space_group_name_Hall 'P 1'
_symmetry_space_group_name_H-M  'P 1'
_symmetry_Int_Tables_number     1

_symmetry_equiv_pos_as_xyz 'x,y,z'

loop_
_atom_site_label
_atom_site_type_symbol
_atom_site_fract_x
_atom_site_fract_y
_atom_site_fract_z
_atom_site_charge
C1       C      0.000790000000     0.086150000000     0.998850000000     0.478048   
C2       C      0.000790000000     0.915680000000     0.998860000000     0.478144   
C3       C      0.086030000000     0.000910000000     0.998830000000     0.478082   
C4       C      0.915560000000     0.000910000000     0.998890000000     0.478142   
C5       C      0.000820000000     0.086000000000     0.498870000000     0.478296   
C6       C      0.000820000000     0.915480000000     0.498850000000     0.477988   
C7       C      0.915560000000     0.000740000000     0.498820000000     0.478238   
C8       C      0.086080000000     0.000740000000     0.498900000000     0.478262   
C9       C      0.000800000000     0.500900000000     0.083750000000     0.478326   
C10      C      0.000830000000     0.500920000000     0.913970000000     0.47855    
C11      C      0.000810000000     0.586140000000     0.998870000000     0.478052   
C12      C      0.000810000000     0.415690000000     0.998850000000     0.477945   
C13      C      0.000800000000     0.500740000000     0.413950000000     0.478836   
C14      C      0.000830000000     0.500760000000     0.583770000000     0.478819   
C15      C      0.000820000000     0.586010000000     0.498850000000     0.478586   
C16      C      0.000820000000     0.415470000000     0.498870000000     0.478591   
C17      C      0.500730000000     0.000780000000     0.083750000000     0.478338   
C18      C      0.500860000000     0.000780000000     0.913970000000     0.478556   
C19      C      0.586020000000     0.000790000000     0.998920000000     0.478139   
C20      C      0.415560000000     0.000790000000     0.998800000000     0.47814    
C21      C      0.500750000000     0.000770000000     0.413950000000     0.478594   
C22      C      0.500880000000     0.000770000000     0.583780000000     0.478754   
C23      C      0.415550000000     0.000760000000     0.498930000000     0.478308   
C24      C      0.586090000000     0.000770000000     0.498790000000     0.478314   
C25      C      0.511680000000     0.039710000000     0.798180000000    -0.0893896  
C26      C      0.500930000000     0.000780000000     0.773910000000     0.0338986  
C27      C      0.490160000000     0.961850000000     0.798170000000    -0.0891243  
C28      C      0.491000000000     0.962270000000     0.844880000000     0.0741655  
C29      C      0.510800000000     0.039290000000     0.844890000000     0.0738724  
C30      C      0.500940000000     0.000780000000     0.723830000000     0.033957   
C31      C      0.491730000000     0.040110000000     0.699570000000    -0.0894367  
C32      C      0.492560000000     0.039650000000     0.652860000000     0.074035   
C33      C      0.509290000000     0.961900000000     0.652860000000     0.0742268  
C34      C      0.510140000000     0.961450000000     0.699570000000    -0.089127   
C35      C      0.509890000000     0.040100000000     0.298150000000    -0.0894146  
C36      C      0.500680000000     0.000770000000     0.273890000000     0.0339465  
C37      C      0.491480000000     0.961440000000     0.298150000000    -0.0890812  
C38      C      0.492340000000     0.961890000000     0.344870000000     0.0742087  
C39      C      0.509070000000     0.039640000000     0.344860000000     0.0740131  
C40      C      0.500680000000     0.000770000000     0.223810000000     0.0339069  
C41      C      0.511440000000     0.961840000000     0.199550000000    -0.0891055  
C42      C      0.510600000000     0.962260000000     0.152840000000     0.0741717  
C43      C      0.490790000000     0.039280000000     0.152840000000     0.0738694  
C44      C      0.489920000000     0.039700000000     0.199540000000    -0.0893652  
C45      C      0.039770000000     0.490120000000     0.798180000000    -0.0894337  
C46      C      0.000850000000     0.500870000000     0.773910000000     0.0339161  
C47      C      0.961920000000     0.511650000000     0.798170000000    -0.0891157  
C48      C      0.962330000000     0.510810000000     0.844870000000     0.0741467  
C49      C      0.039350000000     0.491000000000     0.844890000000     0.0738846  
C50      C      0.000850000000     0.500830000000     0.723830000000     0.0339605  
C51      C      0.040170000000     0.510020000000     0.699560000000    -0.0894144  
C52      C      0.039720000000     0.509150000000     0.652850000000     0.0739578  
C53      C      0.961970000000     0.492420000000     0.652870000000     0.0742814  
C54      C      0.961520000000     0.491610000000     0.699580000000    -0.0891469  
C55      C      0.961860000000     0.490080000000     0.199540000000    -0.0891157  
C56      C      0.000780000000     0.500830000000     0.223810000000     0.0339042  
C57      C      0.039710000000     0.511610000000     0.199550000000    -0.0893609  
C58      C      0.039300000000     0.510780000000     0.152840000000     0.0738733  
C59      C      0.962280000000     0.490970000000     0.152830000000     0.0741732  
C60      C      0.000780000000     0.500790000000     0.273890000000     0.0339924  
C61      C      0.961460000000     0.509990000000     0.298160000000    -0.0891854  
C62      C      0.961920000000     0.509120000000     0.344870000000     0.0743436  
C63      C      0.039660000000     0.492390000000     0.344850000000     0.0739962  
C64      C      0.040110000000     0.491570000000     0.298140000000    -0.0894409  
C65      C      0.202400000000     0.993920000000     0.459250000000    -0.0907011  
C66      C      0.226100000000     0.000750000000     0.498960000000     0.0342039  
C67      C      0.202370000000     0.007580000000     0.538650000000    -0.0909912  
C68      C      0.155460000000     0.007030000000     0.538130000000     0.0737608  
C69      C      0.155500000000     0.994470000000     0.459740000000     0.0740268  
C70      C      0.275530000000     0.000760000000     0.498980000000     0.0342395  
C71      C      0.299250000000     0.960620000000     0.494060000000    -0.0906622  
C72      C      0.346150000000     0.961160000000     0.494570000000     0.0741756  
C73      C      0.346150000000     0.040360000000     0.503360000000     0.0738669  
C74      C      0.299240000000     0.040890000000     0.503900000000    -0.0909594  
C75      C      0.799270000000     0.007600000000     0.459070000000    -0.0909504  
C76      C      0.775540000000     0.000760000000     0.498760000000     0.0341859  
C77      C      0.799240000000     0.993910000000     0.538460000000    -0.0906225  
C78      C      0.846140000000     0.994450000000     0.537980000000     0.0740557  
C79      C      0.846180000000     0.007050000000     0.459590000000     0.0737048  
C80      C      0.726110000000     0.000760000000     0.498740000000     0.0342641  
C81      C      0.702390000000     0.040890000000     0.493810000000    -0.0909828  
C82      C      0.655490000000     0.040360000000     0.494350000000     0.0738918  
C83      C      0.655490000000     0.961160000000     0.503170000000     0.0741904  
C84      C      0.702390000000     0.960630000000     0.503680000000    -0.0906615  
C85      C      0.007590000000     0.799180000000     0.538550000000    -0.0909987  
C86      C      0.000820000000     0.775470000000     0.498840000000     0.0342301  
C87      C      0.994050000000     0.799180000000     0.459140000000    -0.090658   
C88      C      0.994590000000     0.846090000000     0.459640000000     0.0740321  
C89      C      0.007040000000     0.846080000000     0.538050000000     0.0737959  
C90      C      0.000820000000     0.726030000000     0.498840000000     0.034255   
C91      C      0.040950000000     0.702320000000     0.503720000000    -0.0909313  
C92      C      0.040420000000     0.655410000000     0.503200000000     0.0738918  
C93      C      0.961210000000     0.655410000000     0.494490000000     0.0741488  
C94      C      0.960680000000     0.702320000000     0.493970000000    -0.0906571  
C95      C      0.040940000000     0.299170000000     0.493900000000    -0.0909728  
C96      C      0.000820000000     0.275460000000     0.498880000000     0.0342728  
C97      C      0.960690000000     0.299170000000     0.503860000000    -0.0906925  
C98      C      0.961220000000     0.346070000000     0.503320000000     0.0741569  
C99      C      0.040410000000     0.346070000000     0.494430000000     0.0739142  
C100     C      0.000820000000     0.226020000000     0.498870000000     0.0341941  
C101     C      0.007720000000     0.202310000000     0.459190000000    -0.0909977  
C102     C      0.007160000000     0.155400000000     0.459690000000     0.0737665  
C103     C      0.994470000000     0.155400000000     0.538060000000     0.0740144  
C104     C      0.993920000000     0.202300000000     0.538560000000    -0.0906606  
C105     C      0.202310000000     0.992420000000     0.038180000000    -0.0903454  
C106     C      0.226050000000     0.000830000000     0.998770000000     0.0340109  
C107     C      0.202290000000     0.009280000000     0.959390000000    -0.0909303  
C108     C      0.155390000000     0.008620000000     0.959870000000     0.0737826  
C109     C      0.155420000000     0.993130000000     0.037740000000     0.0742689  
C110     C      0.275540000000     0.000810000000     0.998760000000     0.0339952  
C111     C      0.299300000000     0.040300000000     0.990090000000    -0.0908296  
C112     C      0.346200000000     0.039830000000     0.990780000000     0.0737629  
C113     C      0.346180000000     0.961770000000     0.006760000000     0.0743806  
C114     C      0.299280000000     0.961320000000     0.007430000000    -0.0902887  
C115     C      0.702310000000     0.961320000000     0.990290000000    -0.090533   
C116     C      0.726050000000     0.000810000000     0.998960000000     0.0339968  
C117     C      0.702280000000     0.040290000000     0.007630000000    -0.0905283  
C118     C      0.655390000000     0.039830000000     0.006950000000     0.074      
C119     C      0.655410000000     0.961770000000     0.990960000000     0.0740896  
C120     C      0.775530000000     0.000830000000     0.998950000000     0.0339993  
C121     C      0.799300000000     0.009280000000     0.038330000000    -0.0906476  
C122     C      0.846190000000     0.008630000000     0.037850000000     0.0740307  
C123     C      0.846170000000     0.993120000000     0.959990000000     0.0740776  
C124     C      0.799270000000     0.992410000000     0.959540000000    -0.0905808  
C125     C      0.009210000000     0.799400000000     0.959470000000    -0.0909435  
C126     C      0.000810000000     0.775660000000     0.998870000000     0.0340429  
C127     C      0.992390000000     0.799410000000     0.038270000000    -0.090365   
C128     C      0.993070000000     0.846300000000     0.037810000000     0.0743286  
C129     C      0.008530000000     0.846300000000     0.959930000000     0.0737593  
C130     C      0.000810000000     0.726170000000     0.998870000000     0.0340152  
C131     C      0.961320000000     0.702420000000     0.007530000000    -0.0903101  
C132     C      0.961780000000     0.655520000000     0.006850000000     0.0743427  
C133     C      0.039840000000     0.655520000000     0.990900000000     0.0738055  
C134     C      0.040300000000     0.702420000000     0.990220000000    -0.0908418  
C135     C      0.040290000000     0.299410000000     0.007530000000    -0.0905473  
C136     C      0.000810000000     0.275660000000     0.998840000000     0.0340091  
C137     C      0.961330000000     0.299410000000     0.990160000000    -0.0905315  
C138     C      0.961780000000     0.346310000000     0.990840000000     0.0740278  
C139     C      0.039840000000     0.346310000000     0.006850000000     0.0740007  
C140     C      0.000800000000     0.226170000000     0.998850000000     0.033995   
C141     C      0.009250000000     0.202420000000     0.038240000000    -0.0906806  
C142     C      0.008570000000     0.155530000000     0.037780000000     0.0740013  
C143     C      0.993030000000     0.155520000000     0.959920000000     0.0740338  
C144     C      0.992350000000     0.202420000000     0.959460000000    -0.0905481  
H1       H      0.480450000000     0.931110000000     0.781490000000     0.0486828  
H2       H      0.482460000000     0.931370000000     0.862090000000     0.021771   
H3       H      0.519320000000     0.070190000000     0.862100000000     0.0217726  
H4       H      0.521410000000     0.070450000000     0.781500000000     0.0486614  
H5       H      0.483240000000     0.071210000000     0.716260000000     0.0486145  
H6       H      0.485260000000     0.070870000000     0.635650000000     0.0216081  
H7       H      0.516580000000     0.930690000000     0.635650000000     0.0216095  
H8       H      0.518630000000     0.930350000000     0.716250000000     0.0486185  
H9       H      0.482980000000     0.930340000000     0.281470000000     0.0486159  
H10      H      0.485060000000     0.930680000000     0.362080000000     0.0216294  
H11      H      0.516380000000     0.070860000000     0.362060000000     0.0216225  
H12      H      0.518380000000     0.071200000000     0.281460000000     0.0486272  
H13      H      0.521150000000     0.931100000000     0.216230000000     0.0487066  
H14      H      0.519130000000     0.931360000000     0.135630000000     0.0218293  
H15      H      0.482270000000     0.070190000000     0.135620000000     0.0218399  
H16      H      0.480190000000     0.070440000000     0.216230000000     0.0486712  
H17      H      0.931180000000     0.521360000000     0.781480000000     0.0486736  
H18      H      0.931430000000     0.519350000000     0.862080000000     0.0217819  
H19      H      0.070250000000     0.482480000000     0.862110000000     0.0217733  
H20      H      0.070510000000     0.480400000000     0.781510000000     0.0486837  
H21      H      0.071270000000     0.518520000000     0.716240000000     0.048613   
H22      H      0.070930000000     0.516440000000     0.635640000000     0.0216177  
H23      H      0.930750000000     0.485120000000     0.635670000000     0.0216006  
H24      H      0.930420000000     0.483130000000     0.716270000000     0.0486166  
H25      H      0.070450000000     0.521320000000     0.216240000000     0.0486803  
H26      H      0.070200000000     0.519320000000     0.135640000000     0.0218298  
H27      H      0.931380000000     0.482450000000     0.135610000000     0.0218278  
H28      H      0.931120000000     0.480360000000     0.216210000000     0.0487082  
H29      H      0.930360000000     0.518480000000     0.281480000000     0.0486497  
H30      H      0.930700000000     0.516410000000     0.362080000000     0.0215968  
H31      H      0.070880000000     0.485090000000     0.362050000000     0.0216187  
H32      H      0.071210000000     0.483090000000     0.281450000000     0.0486326  
H33      H      0.219980000000     0.012920000000     0.569920000000     0.0510745  
H34      H      0.138220000000     0.012260000000     0.569650000000     0.02205    
H35      H      0.138280000000     0.989230000000     0.428200000000     0.0221282  
H36      H      0.220040000000     0.988590000000     0.428000000000     0.0511703  
H37      H      0.281620000000     0.929020000000     0.490220000000     0.0510212  
H38      H      0.363380000000     0.929300000000     0.490840000000     0.0219885  
H39      H      0.363370000000     0.072220000000     0.507070000000     0.0219972  
H40      H      0.281620000000     0.072490000000     0.507730000000     0.0510147  
H41      H      0.781600000000     0.988550000000     0.569720000000     0.0511452  
H42      H      0.863360000000     0.989200000000     0.569510000000     0.0221775  
H43      H      0.863420000000     0.012290000000     0.428080000000     0.0221285  
H44      H      0.781660000000     0.012960000000     0.427810000000     0.051108   
H45      H      0.720020000000     0.072480000000     0.489960000000     0.0510411  
H46      H      0.638270000000     0.072220000000     0.490620000000     0.0219975  
H47      H      0.638260000000     0.929300000000     0.506910000000     0.0219912  
H48      H      0.720020000000     0.929030000000     0.507530000000     0.0510353  
H49      H      0.988750000000     0.781560000000     0.427870000000     0.0511816  
H50      H      0.989400000000     0.863310000000     0.428110000000     0.0221732  
H51      H      0.012240000000     0.863300000000     0.569590000000     0.0221059  
H52      H      0.012880000000     0.781550000000     0.569820000000     0.0511016  
H53      H      0.072560000000     0.719950000000     0.507520000000     0.051007   
H54      H      0.072290000000     0.638190000000     0.506880000000     0.0220021  
H55      H      0.929350000000     0.638190000000     0.490810000000     0.0219937  
H56      H      0.929080000000     0.719950000000     0.490170000000     0.0510478  
H57      H      0.929100000000     0.281540000000     0.507740000000     0.0510319  
H58      H      0.929370000000     0.363300000000     0.507090000000     0.021981   
H59      H      0.072270000000     0.363300000000     0.490660000000     0.0219868  
H60      H      0.072540000000     0.281540000000     0.490020000000     0.0509955  
H61      H      0.013110000000     0.219940000000     0.427940000000     0.0510809  
H62      H      0.012460000000     0.138180000000     0.428170000000     0.0220569  
H63      H      0.989180000000     0.138170000000     0.569570000000     0.0221171  
H64      H      0.988520000000     0.219930000000     0.569810000000     0.0511377  
H65      H      0.219880000000     0.015830000000     0.928340000000     0.0508763  
H66      H      0.138140000000     0.015080000000     0.928580000000     0.0220023  
H67      H      0.138180000000     0.986690000000     0.069030000000     0.0220698  
H68      H      0.219920000000     0.985850000000     0.069220000000     0.0509466  
H69      H      0.281710000000     0.071420000000     0.983340000000     0.0507871  
H70      H      0.363450000000     0.071190000000     0.984140000000     0.0220574  
H71      H      0.363410000000     0.930390000000     0.013400000000     0.022077   
H72      H      0.281670000000     0.930200000000     0.014180000000     0.0508455  
H73      H      0.719870000000     0.071420000000     0.014390000000     0.0508328  
H74      H      0.638140000000     0.071190000000     0.013590000000     0.0221103  
H75      H      0.638180000000     0.930390000000     0.984310000000     0.0220472  
H76      H      0.719910000000     0.930200000000     0.983530000000     0.0508029  
H77      H      0.781700000000     0.015840000000     0.069380000000     0.0508971  
H78      H      0.863440000000     0.015090000000     0.069140000000     0.0220672  
H79      H      0.863400000000     0.986680000000     0.928690000000     0.0221185  
H80      H      0.781670000000     0.985840000000     0.928500000000     0.0509645  
H81      H      0.985850000000     0.781810000000     0.069320000000     0.0509807  
H82      H      0.986630000000     0.863540000000     0.069100000000     0.0221101  
H83      H      0.014960000000     0.863540000000     0.928630000000     0.0220696  
H84      H      0.015760000000     0.781810000000     0.928430000000     0.0509244  
H85      H      0.930200000000     0.720010000000     0.014280000000     0.0508881  
H86      H      0.930410000000     0.638280000000     0.013490000000     0.0220998  
H87      H      0.071220000000     0.638280000000     0.984260000000     0.0220643  
H88      H      0.071420000000     0.720020000000     0.983470000000     0.0507972  
H89      H      0.930210000000     0.281820000000     0.983400000000     0.0507937  
H90      H      0.930420000000     0.363550000000     0.984190000000     0.0220613  
H91      H      0.071210000000     0.363550000000     0.013500000000     0.0221118  
H92      H      0.071410000000     0.281810000000     0.014290000000     0.0508275  
H93      H      0.015830000000     0.220020000000     0.069280000000     0.0508875  
H94      H      0.015030000000     0.138290000000     0.069070000000     0.0220081  
H95      H      0.986560000000     0.138280000000     0.928630000000     0.0220587  
H96      H      0.985770000000     0.220020000000     0.928410000000     0.0509071  
N1       N      0.500890000000     0.000780000000     0.868080000000    -0.207641   
N2       N      0.500910000000     0.000780000000     0.629660000000    -0.207725   
N3       N      0.500720000000     0.000770000000     0.368060000000    -0.207625   
N4       N      0.500700000000     0.000770000000     0.129640000000    -0.207567   
N5       N      0.000840000000     0.500910000000     0.868080000000    -0.207627   
N6       N      0.000840000000     0.500770000000     0.629660000000    -0.207669   
N7       N      0.000790000000     0.500890000000     0.129640000000    -0.207571   
N8       N      0.000790000000     0.500750000000     0.368060000000    -0.207697   
N9       N      0.132170000000     0.000750000000     0.498930000000    -0.20747    
N10      N      0.369460000000     0.000760000000     0.498960000000    -0.207446   
N11      N      0.869470000000     0.000750000000     0.498800000000    -0.207422   
N12      N      0.632180000000     0.000760000000     0.498770000000    -0.207444   
N13      N      0.000820000000     0.869390000000     0.498850000000    -0.207407   
N14      N      0.000820000000     0.632100000000     0.498840000000    -0.207486   
N15      N      0.000820000000     0.369390000000     0.498870000000    -0.207546   
N16      N      0.000820000000     0.132090000000     0.498870000000    -0.207464   
N17      N      0.132110000000     0.000890000000     0.998810000000    -0.20762    
N18      N      0.369480000000     0.000790000000     0.998780000000    -0.207601   
N19      N      0.632100000000     0.000790000000     0.998950000000    -0.207572   
N20      N      0.869480000000     0.000890000000     0.998910000000    -0.207606   
N21      N      0.000800000000     0.869600000000     0.998870000000    -0.207594   
N22      N      0.000810000000     0.632220000000     0.998870000000    -0.207568   
N23      N      0.000810000000     0.369610000000     0.998850000000    -0.207515   
N24      N      0.000800000000     0.132230000000     0.998850000000    -0.207612   
O1       O      0.002690000000     0.064640000000     0.036110000000    -0.556933   
O2       O      0.998930000000     0.937190000000     0.036120000000    -0.556239   
O3       O      0.064530000000     0.999030000000     0.036090000000    -0.556553   
O4       O      0.937080000000     0.002800000000     0.036140000000    -0.556708   
O5       O      0.937050000000     0.999030000000     0.961630000000    -0.556509   
O6       O      0.064500000000     0.002790000000     0.961580000000    -0.557135   
O7       O      0.002660000000     0.937190000000     0.961610000000    -0.55704    
O8       O      0.998900000000     0.064630000000     0.961600000000    -0.55676    
O9       O      0.002370000000     0.064490000000     0.461600000000    -0.557102   
O10      O      0.999310000000     0.937010000000     0.461580000000    -0.556319   
O11      O      0.937100000000     0.002270000000     0.461560000000    -0.556849   
O12      O      0.064580000000     0.999220000000     0.461620000000    -0.556637   
O13      O      0.064540000000     0.002270000000     0.536160000000    -0.557071   
O14      O      0.937060000000     0.999210000000     0.536100000000    -0.556397   
O15      O      0.002320000000     0.937000000000     0.536130000000    -0.556702   
O16      O      0.999270000000     0.064480000000     0.536140000000    -0.556638   
O17      O      0.038190000000     0.503110000000     0.062340000000    -0.556855   
O18      O      0.038210000000     0.498710000000     0.935400000000    -0.55707    
O19      O      0.038200000000     0.564630000000     0.996740000000    -0.557128   
O20      O      0.038200000000     0.437200000000     0.000990000000    -0.556616   
O21      O      0.963420000000     0.437200000000     0.996710000000    -0.556779   
O22      O      0.963420000000     0.564630000000     0.000990000000    -0.556586   
O23      O      0.963440000000     0.503130000000     0.935380000000    -0.556881   
O24      O      0.963410000000     0.498700000000     0.062320000000    -0.556598   
O25      O      0.963350000000     0.501440000000     0.435370000000    -0.557233   
O26      O      0.963380000000     0.500050000000     0.562370000000    -0.55732    
O27      O      0.963370000000     0.564500000000     0.499120000000    -0.557151   
O28      O      0.963370000000     0.436990000000     0.498610000000    -0.557225   
O29      O      0.038270000000     0.436990000000     0.499120000000    -0.557392   
O30      O      0.038270000000     0.564500000000     0.498580000000    -0.5573     
O31      O      0.038280000000     0.501460000000     0.562350000000    -0.557407   
O32      O      0.038250000000     0.500040000000     0.435350000000    -0.557468   
O33      O      0.502950000000     0.963390000000     0.062330000000    -0.556638   
O34      O      0.498630000000     0.963400000000     0.935390000000    -0.556948   
O35      O      0.564510000000     0.963400000000     0.996770000000    -0.556839   
O36      O      0.437070000000     0.963400000000     0.000950000000    -0.556496   
O37      O      0.437080000000     0.038170000000     0.996680000000    -0.557187   
O38      O      0.564500000000     0.038170000000     0.001040000000    -0.556819   
O39      O      0.503050000000     0.038170000000     0.935390000000    -0.557034   
O40      O      0.498540000000     0.038170000000     0.062330000000    -0.556817   
O41      O      0.500070000000     0.963310000000     0.435360000000    -0.557144   
O42      O      0.501570000000     0.963320000000     0.562360000000    -0.557221   
O43      O      0.437070000000     0.963310000000     0.499170000000    -0.557173   
O44      O      0.564570000000     0.963310000000     0.498550000000    -0.557086   
O45      O      0.564580000000     0.038220000000     0.499070000000    -0.55719    
O46      O      0.437060000000     0.038220000000     0.498650000000    -0.557121   
O47      O      0.500170000000     0.038220000000     0.562360000000    -0.557335   
O48      O      0.501470000000     0.038220000000     0.435360000000    -0.557347   
V1       V      0.000810000000     0.000920000000     0.039090000000     1.39372    
V2       V      0.000780000000     0.000910000000     0.958620000000     1.39344    
V3       V      0.000840000000     0.000750000000     0.458620000000     1.3933     
V4       V      0.000800000000     0.000740000000     0.539100000000     1.39327    
V5       V      0.041200000000     0.500920000000     0.998870000000     1.39374    
V6       V      0.960430000000     0.500920000000     0.998850000000     1.39438    
V7       V      0.960400000000     0.500740000000     0.498870000000     1.39575    
V8       V      0.041230000000     0.500740000000     0.498850000000     1.39512    
V9       V      0.500790000000     0.960400000000     0.998860000000     1.39433    
V10      V      0.500790000000     0.041170000000     0.998860000000     1.39389    
V11      V      0.500820000000     0.960350000000     0.498860000000     1.39586    
V12      V      0.500820000000     0.041180000000     0.498860000000     1.3948     


