data_structure

_audit_creation_method RASPA-1.0
_audit_creation_date 2023-5-19
_audit_author_name 'Poobodin Mano'

_cell_length_a    38.507
_cell_length_b    38.5008
_cell_length_c    38.4717
_cell_angle_alpha 90
_cell_angle_beta  90
_cell_angle_gamma 90
_cell_volume      57036.2

_symmetry_cell_setting          triclinic
_symmetry_space_group_name_Hall 'P 1'
_symmetry_space_group_name_H-M  'P 1'
_symmetry_Int_Tables_number     1

_symmetry_equiv_pos_as_xyz 'x,y,z'

loop_
_atom_site_label
_atom_site_type_symbol
_atom_site_fract_x
_atom_site_fract_y
_atom_site_fract_z
_atom_site_charge
Br1      Br     0.903210000000     0.417440000000     0.004570000000    -0.243012   
Br2      Br     0.101830000000     0.581390000000     0.986880000000    -0.243007   
Br3      Br     0.582380000000     0.900210000000     0.016530000000    -0.227869   
Br4      Br     0.420340000000     0.099470000000     0.996820000000    -0.228049   
Br5      Br     0.420290000000     0.009040000000     0.906570000000    -0.228238   
Br6      Br     0.582420000000     0.990760000000     0.105900000000    -0.227233   
Br7      Br     0.916040000000     0.509970000000     0.597700000000    -0.244516   
Br8      Br     0.050920000000     0.553010000000     0.397310000000    -0.193984   
Br9      Br     0.102420000000     0.998300000000     0.420800000000    -0.238915   
Br10     Br     0.896470000000     0.988950000000     0.423830000000    -0.23874    
Br11     Br     0.050330000000     0.597400000000     0.440670000000    -0.194244   
Br12     Br     0.988440000000     0.102980000000     0.577160000000    -0.243137   
C1       C      0.998230000000     0.067230000000     0.500280000000     0.49128    
C2       C      0.001520000000     0.935220000000     0.498080000000     0.481706   
C3       C      0.934020000000     0.999370000000     0.499700000000     0.491238   
C4       C      0.066130000000     0.002490000000     0.498010000000     0.490892   
C5       C      0.993380000000     0.435450000000     0.495520000000     0.480709   
C6       C      0.994320000000     0.567200000000     0.493080000000     0.495497   
C7       C      0.994670000000     0.501710000000     0.429020000000     0.494069   
C8       C      0.992750000000     0.502250000000     0.561130000000     0.48901    
C9       C      0.566070000000     0.999160000000     0.507300000000     0.480274   
C10      C      0.434200000000     0.000380000000     0.505270000000     0.480201   
C11      C      0.501200000000     0.000190000000     0.440230000000     0.48111    
C12      C      0.499150000000     0.999390000000     0.572110000000     0.481451   
C13      C      0.504750000000     0.999810000000     0.072110000000     0.492574   
C14      C      0.498040000000     0.999720000000     0.940110000000     0.49309    
C15      C      0.498110000000     0.065740000000     0.005520000000     0.491688   
C16      C      0.504770000000     0.933760000000     0.006460000000     0.492063   
C17      C      0.068560000000     0.503380000000     0.995620000000     0.489998   
C18      C      0.936620000000     0.495570000000     0.996850000000     0.489606   
C19      C      0.003110000000     0.498850000000     0.062160000000     0.480643   
C20      C      0.002050000000     0.500070000000     0.930050000000     0.480516   
C21      C      0.501090000000     0.433820000000     0.001330000000     0.480035   
C22      C      0.503900000000     0.565680000000     0.001280000000     0.480351   
C23      C      0.436600000000     0.501220000000     0.001370000000     0.479867   
C24      C      0.568460000000     0.498260000000     0.000940000000     0.480125   
C25      C      0.846080000000     0.462980000000     0.000490000000    -0.132834   
C26      C      0.622410000000     0.496560000000     0.031320000000     0.0785152  
C27      C      0.621880000000     0.497430000000     0.969710000000     0.0788413  
C28      C      0.658690000000     0.495710000000     0.031450000000    -0.096548   
C29      C      0.734170000000     0.473720000000     0.022370000000    -0.0351217  
C30      C      0.770480000000     0.473180000000     0.021810000000    -0.0308674  
C31      C      0.715580000000     0.495340000000     0.999540000000    -0.00581603 
C32      C      0.658110000000     0.496730000000     0.968900000000    -0.0966842  
C33      C      0.789000000000     0.494370000000     0.998530000000    -0.0127951  
C34      C      0.846220000000     0.525050000000     0.995470000000    -0.106757   
C35      C      0.770400000000     0.516020000000     0.975740000000    -0.0309877  
C36      C      0.882400000000     0.524480000000     0.995220000000     0.0849599  
C37      C      0.882500000000     0.462940000000     0.000100000000     0.193912   
C38      C      0.734120000000     0.516450000000     0.976200000000    -0.0355335  
C39      C      0.677000000000     0.495890000000     0.999990000000     0.0525137  
C40      C      0.827590000000     0.494110000000     0.998130000000     0.0719742  
C41      C      0.158970000000     0.536360000000     0.994750000000    -0.132876   
C42      C      0.383040000000     0.502870000000     0.970470000000     0.0787607  
C43      C      0.382820000000     0.502160000000     0.032090000000     0.0785434  
C44      C      0.346810000000     0.503820000000     0.969870000000    -0.0966383  
C45      C      0.271580000000     0.526180000000     0.977320000000    -0.0350399  
C46      C      0.235300000000     0.526570000000     0.976650000000    -0.0308199  
C47      C      0.289500000000     0.504680000000     0.000790000000    -0.00587871 
C48      C      0.346540000000     0.502970000000     0.032420000000    -0.0964247  
C49      C      0.216100000000     0.505380000000     0.999370000000    -0.0128138  
C50      C      0.158980000000     0.474330000000     0.000320000000    -0.106895   
C51      C      0.234020000000     0.484000000000     0.022950000000    -0.0309966  
C52      C      0.122810000000     0.474680000000     0.999000000000     0.0851919  
C53      C      0.122580000000     0.536170000000     0.993520000000     0.19418    
C54      C      0.270300000000     0.483700000000     0.023700000000    -0.0355103  
C55      C      0.328080000000     0.503860000000     0.001060000000     0.0524252  
C56      C      0.177530000000     0.505370000000     0.998260000000     0.0720288  
C57      C      0.537260000000     0.843250000000     0.007900000000    -0.132173   
C58      C      0.505050000000     0.619180000000     0.032310000000     0.0789363  
C59      C      0.504320000000     0.619540000000     0.970700000000     0.0787122  
C60      C      0.505520000000     0.655430000000     0.033000000000    -0.0966836  
C61      C      0.484750000000     0.731880000000     0.979220000000    -0.0351906  
C62      C      0.484880000000     0.768180000000     0.979890000000    -0.0310011  
C63      C      0.505780000000     0.712810000000     0.002200000000    -0.00594137 
C64      C      0.504700000000     0.655830000000     0.970450000000    -0.0965741  
C65      C      0.506140000000     0.786230000000     0.003480000000    -0.0123899  
C66      C      0.475260000000     0.843470000000     0.001990000000    -0.105753   
C67      C      0.527280000000     0.767150000000     0.026350000000    -0.0307082  
C68      C      0.475760000000     0.879660000000     0.003150000000     0.0865499  
C69      C      0.537210000000     0.879630000000     0.009010000000     0.194668   
C70      C      0.527080000000     0.730880000000     0.025740000000    -0.0347308  
C71      C      0.505340000000     0.674230000000     0.001850000000     0.0526501  
C72      C      0.506220000000     0.824810000000     0.004320000000     0.072397   
C73      C      0.466060000000     0.156410000000     0.001750000000    -0.132102   
C74      C      0.499520000000     0.379940000000     0.970820000000     0.0786862  
C75      C      0.500490000000     0.380340000000     0.032430000000     0.078869   
C76      C      0.498850000000     0.343660000000     0.970620000000    -0.0965069  
C77      C      0.519880000000     0.268190000000     0.025730000000    -0.0352944  
C78      C      0.519420000000     0.231910000000     0.026230000000    -0.0309952  
C79      C      0.498720000000     0.286710000000     0.002430000000    -0.00592815 
C80      C      0.499950000000     0.344100000000     0.033160000000    -0.0967999  
C81      C      0.497710000000     0.213310000000     0.003510000000    -0.012448   
C82      C      0.528140000000     0.155950000000     0.006680000000    -0.105884   
C83      C      0.476530000000     0.231820000000     0.980210000000    -0.0307198  
C84      C      0.527380000000     0.119770000000     0.006970000000     0.086603   
C85      C      0.465840000000     0.120000000000     0.002140000000     0.194561   
C86      C      0.477080000000     0.268120000000     0.979620000000    -0.0347956  
C87      C      0.499150000000     0.325290000000     0.002040000000     0.0526449  
C88      C      0.497290000000     0.174740000000     0.004050000000     0.0724056  
C89      C      0.465630000000     0.001890000000     0.849560000000    -0.132685   
C90      C      0.498520000000     0.029900000000     0.625940000000     0.0790118  
C91      C      0.498480000000     0.968310000000     0.625640000000     0.0790771  
C92      C      0.498080000000     0.030190000000     0.662210000000    -0.0971557  
C93      C      0.476230000000     0.021990000000     0.737580000000    -0.0348314  
C94      C      0.475910000000     0.021960000000     0.773870000000    -0.0308042  
C95      C      0.497490000000     0.998690000000     0.719200000000    -0.00605934 
C96      C      0.498140000000     0.967660000000     0.661920000000    -0.0970458  
C97      C      0.496910000000     0.998690000000     0.792580000000    -0.0125277  
C98      C      0.527680000000     0.996350000000     0.849810000000    -0.106234   
C99      C      0.518180000000     0.975380000000     0.774210000000    -0.0310914  
C100     C      0.527100000000     0.996940000000     0.886020000000     0.0868811  
C101     C      0.465600000000     0.002420000000     0.885960000000     0.194856   
C102     C      0.518410000000     0.975340000000     0.737910000000    -0.0352606  
C103     C      0.497900000000     0.998840000000     0.680640000000     0.053008   
C104     C      0.496740000000     0.998840000000     0.831150000000     0.0727671  
C105     C      0.536890000000     0.997790000000     0.162800000000    -0.132134   
C106     C      0.502320000000     0.969700000000     0.386370000000     0.0791678  
C107     C      0.502130000000     0.031290000000     0.386710000000     0.0791484  
C108     C      0.503130000000     0.969440000000     0.350100000000    -0.096663   
C109     C      0.525650000000     0.977760000000     0.274880000000    -0.0345685  
C110     C      0.526280000000     0.977820000000     0.238580000000    -0.0305211  
C111     C      0.504170000000     0.000990000000     0.293100000000    -0.00583871 
C112     C      0.502830000000     0.031960000000     0.350430000000    -0.0967052  
C113     C      0.505350000000     0.001030000000     0.219700000000    -0.0123893  
C114     C      0.474840000000     0.003220000000     0.162330000000    -0.105946   
C115     C      0.483890000000     0.024280000000     0.237920000000    -0.0308908  
C116     C      0.475540000000     0.002600000000     0.126130000000     0.0868583  
C117     C      0.537050000000     0.997240000000     0.126380000000     0.194912   
C118     C      0.483350000000     0.024300000000     0.274230000000    -0.0351719  
C119     C      0.503380000000     0.000800000000     0.331680000000     0.0529533  
C120     C      0.505720000000     0.000810000000     0.181120000000     0.0726362  
C121     C      0.963690000000     0.504860000000     0.652990000000    -0.13253    
C122     C      0.999790000000     0.531340000000     0.876610000000     0.0805033  
C123     C      0.003050000000     0.469870000000     0.875920000000     0.0801969  
C124     C      0.999100000000     0.532170000000     0.840300000000    -0.0949566  
C125     C      0.977000000000     0.524380000000     0.764860000000    -0.034794   
C126     C      0.975800000000     0.524640000000     0.728540000000    -0.0304944  
C127     C      0.999340000000     0.501570000000     0.782600000000    -0.00497182 
C128     C      0.002480000000     0.469780000000     0.839590000000    -0.0949263  
C129     C      0.996960000000     0.502130000000     0.709040000000    -0.0124961  
C130     C      0.025690000000     0.499890000000     0.650510000000    -0.10597    
C131     C      0.019430000000     0.479430000000     0.726770000000    -0.0306373  
C132     C      0.023780000000     0.500160000000     0.614290000000     0.084718   
C133     C      0.962310000000     0.505050000000     0.616570000000     0.193654   
C134     C      0.020560000000     0.479110000000     0.763110000000    -0.0352361  
C135     C      0.000390000000     0.501170000000     0.821280000000     0.052787   
C136     C      0.995450000000     0.502250000000     0.670370000000     0.0715765  
C137     C      0.025240000000     0.514400000000     0.339670000000    -0.130668   
C138     C      0.009150000000     0.468170000000     0.115660000000     0.0809362  
C139     C      0.997130000000     0.528590000000     0.116140000000     0.0810193  
C140     C      0.009300000000     0.467440000000     0.151990000000    -0.0959094  
C141     C      0.029520000000     0.484000000000     0.228370000000    -0.0349104  
C142     C      0.028740000000     0.484340000000     0.264740000000    -0.0306945  
C143     C      0.001530000000     0.497410000000     0.209180000000    -0.00554041 
C144     C      0.996330000000     0.528600000000     0.152440000000    -0.0958744  
C145     C      0.999610000000     0.497350000000     0.282450000000    -0.0125201  
C146     C      0.970190000000     0.484700000000     0.338950000000    -0.106399   
C147     C      0.971440000000     0.510320000000     0.263220000000    -0.0303492  
C148     C      0.969010000000     0.486920000000     0.375140000000     0.088292   
C149     C      0.022670000000     0.517510000000     0.375850000000     0.190066   
C150     C      0.972540000000     0.510660000000     0.226910000000    -0.0350907  
C151     C      0.002530000000     0.497830000000     0.170720000000     0.0537105  
C152     C      0.998740000000     0.498060000000     0.320920000000     0.0717972  
C153     C      0.157730000000     0.001200000000     0.468520000000    -0.132767   
C154     C      0.380740000000     0.031590000000     0.505610000000     0.0787088  
C155     C      0.380280000000     0.970040000000     0.504020000000     0.0788526  
C156     C      0.344470000000     0.032330000000     0.505360000000    -0.0965666  
C157     C      0.268200000000     0.024340000000     0.524880000000    -0.0353963  
C158     C      0.231900000000     0.024630000000     0.524020000000    -0.0308772  
C159     C      0.287080000000     0.001500000000     0.503520000000    -0.00584967 
C160     C      0.344020000000     0.969850000000     0.503600000000    -0.0965966  
C161     C      0.213700000000     0.002240000000     0.501640000000    -0.0126992  
C162     C      0.155490000000     0.004680000000     0.530700000000    -0.105902   
C163     C      0.232600000000     0.979370000000     0.480340000000    -0.0306438  
C164     C      0.119300000000     0.004590000000     0.528920000000     0.0856122  
C165     C      0.121370000000     0.001260000000     0.467250000000     0.19427    
C166     C      0.268860000000     0.978960000000     0.481310000000    -0.0348928  
C167     C      0.325660000000     0.001230000000     0.504260000000     0.0526086  
C168     C      0.175150000000     0.002790000000     0.500310000000     0.0722448  
C169     C      0.841980000000     0.994900000000     0.472210000000    -0.132798   
C170     C      0.620090000000     0.029350000000     0.508590000000     0.0787565  
C171     C      0.619390000000     0.967780000000     0.507960000000     0.0788171  
C172     C      0.656370000000     0.029390000000     0.509010000000    -0.096483   
C173     C      0.732410000000     0.020640000000     0.528920000000    -0.0353243  
C174     C      0.768710000000     0.020500000000     0.527940000000    -0.0309204  
C175     C      0.713190000000     0.997440000000     0.508250000000    -0.00575702 
C176     C      0.655630000000     0.966890000000     0.508290000000    -0.0966947  
C177     C      0.786580000000     0.997270000000     0.506150000000    -0.0124102  
C178     C      0.845310000000     0.000880000000     0.534160000000    -0.105569   
C179     C      0.767350000000     0.973890000000     0.485720000000    -0.0307739  
C180     C      0.881470000000     0.001060000000     0.531700000000     0.0860686  
C181     C      0.878290000000     0.995160000000     0.470270000000     0.194853   
C182     C      0.731100000000     0.973960000000     0.486770000000    -0.0347739  
C183     C      0.674600000000     0.997920000000     0.508710000000     0.0527113  
C184     C      0.825110000000     0.997750000000     0.504210000000     0.0724139  
C185     C      0.025080000000     0.655940000000     0.478150000000    -0.129378   
C186     C      0.006350000000     0.881230000000     0.527920000000     0.0806119  
C187     C      0.998030000000     0.881850000000     0.466910000000     0.0821658  
C188     C      0.006810000000     0.844960000000     0.527990000000    -0.0952356  
C189     C      0.987920000000     0.768920000000     0.524560000000    -0.0346985  
C190     C      0.987440000000     0.732620000000     0.524130000000    -0.0309449  
C191     C      0.001970000000     0.787770000000     0.496540000000    -0.00459665 
C192     C      0.997770000000     0.845580000000     0.466110000000    -0.0938562  
C193     C      0.000520000000     0.714100000000     0.495450000000    -0.0108776  
C194     C      0.970360000000     0.657600000000     0.508410000000    -0.103925   
C195     C      0.014510000000     0.732960000000     0.467410000000    -0.0301074  
C196     C      0.968840000000     0.621430000000     0.506690000000     0.0888072  
C197     C      0.022210000000     0.619790000000     0.475730000000     0.190459   
C198     C      0.015480000000     0.769230000000     0.468080000000    -0.0340008  
C199     C      0.002260000000     0.826530000000     0.496880000000     0.0531656  
C200     C      0.998960000000     0.675390000000     0.494510000000     0.0709417  
C201     C      0.992770000000     0.158640000000     0.529900000000    -0.132672   
C202     C      0.962510000000     0.381760000000     0.495700000000     0.0797459  
C203     C      0.024070000000     0.381720000000     0.495490000000     0.0796676  
C204     C      0.962040000000     0.345470000000     0.495730000000    -0.0955104  
C205     C      0.016850000000     0.269590000000     0.474870000000    -0.0352215  
C206     C      0.017280000000     0.233290000000     0.475470000000    -0.0306329  
C207     C      0.993360000000     0.288250000000     0.495730000000    -0.00536902 
C208     C      0.024530000000     0.345460000000     0.495390000000    -0.095962   
C209     C      0.994340000000     0.214820000000     0.497040000000    -0.0123102  
C210     C      0.998650000000     0.156720000000     0.467890000000    -0.105149   
C211     C      0.970710000000     0.233460000000     0.517740000000    -0.0304095  
C212     C      0.999390000000     0.120540000000     0.469560000000     0.0869057  
C213     C      0.993630000000     0.122270000000     0.531050000000     0.194956   
C214     C      0.970190000000     0.269750000000     0.517050000000    -0.0347549  
C215     C      0.993290000000     0.326850000000     0.495540000000     0.0528316  
C216     C      0.995270000000     0.176240000000     0.498250000000     0.0724795  
H1       H      0.608370000000     0.497990000000     0.944990000000     0.0237233  
H2       H      0.895300000000     0.549420000000     0.993100000000     0.024819   
H3       H      0.720590000000     0.533660000000     0.958520000000     0.039338   
H4       H      0.784050000000     0.456470000000     0.039930000000     0.0414725  
H5       H      0.832950000000     0.549820000000     0.994020000000     0.0577397  
H6       H      0.720650000000     0.456910000000     0.040440000000     0.0399581  
H7       H      0.832210000000     0.438550000000     0.002310000000     0.0826583  
H8       H      0.671210000000     0.496440000000     0.943990000000     0.0547315  
H9       H      0.672280000000     0.495460000000     0.056100000000     0.0544484  
H10      H      0.783890000000     0.532420000000     0.957280000000     0.0386107  
H11      H      0.609310000000     0.496560000000     0.056270000000     0.0235559  
H12      H      0.396050000000     0.501610000000     0.056960000000     0.0236795  
H13      H      0.109950000000     0.449690000000     0.000860000000     0.0245481  
H14      H      0.283330000000     0.466620000000     0.041880000000     0.0392991  
H15      H      0.222290000000     0.543090000000     0.957950000000     0.0414815  
H16      H      0.172330000000     0.449660000000     0.002530000000     0.0577021  
H17      H      0.285600000000     0.542920000000     0.959570000000     0.0399289  
H18      H      0.172750000000     0.560860000000     0.993190000000     0.0827044  
H19      H      0.333090000000     0.503350000000     0.057140000000     0.0547055  
H20      H      0.333570000000     0.504010000000     0.945020000000     0.054369   
H21      H      0.219970000000     0.467630000000     0.041020000000     0.0385458  
H22      H      0.396400000000     0.502750000000     0.945670000000     0.023579   
H23      H      0.503930000000     0.606370000000     0.945790000000     0.0234552  
H24      H      0.450870000000     0.892670000000     0.001040000000     0.0280602  
H25      H      0.543850000000     0.716970000000     0.043550000000     0.0402782  
H26      H      0.468540000000     0.782120000000     0.961720000000     0.0393221  
H27      H      0.450550000000     0.830210000000     0.999700000000     0.0591449  
H28      H      0.467810000000     0.718740000000     0.961000000000     0.0394429  
H29      H      0.561690000000     0.829390000000     0.009720000000     0.0831625  
H30      H      0.504940000000     0.669340000000     0.945760000000     0.0545488  
H31      H      0.505550000000     0.668600000000     0.057880000000     0.0548189  
H32      H      0.543690000000     0.780270000000     0.045080000000     0.0425952  
H33      H      0.505080000000     0.605750000000     0.057080000000     0.0238013  
H34      H      0.501020000000     0.393790000000     0.057180000000     0.0236237  
H35      H      0.552230000000     0.106700000000     0.009140000000     0.0280885  
H36      H      0.460240000000     0.281630000000     0.961580000000     0.0402024  
H37      H      0.535820000000     0.218420000000     0.044690000000     0.0393803  
H38      H      0.552970000000     0.169100000000     0.008080000000     0.0590761  
H39      H      0.537090000000     0.281730000000     0.043390000000     0.0395083  
H40      H      0.441710000000     0.170390000000     0.999850000000     0.0832347  
H41      H      0.499740000000     0.330950000000     0.058050000000     0.0546566  
H42      H      0.498620000000     0.330110000000     0.945940000000     0.05464    
H43      H      0.459780000000     0.218240000000     0.962130000000     0.0424772  
H44      H      0.499430000000     0.393100000000     0.945900000000     0.0236069  
H45      H      0.498540000000     0.943560000000     0.612200000000     0.0235505  
H46      H      0.551990000000     0.994810000000     0.899040000000     0.0278101  
H47      H      0.535320000000     0.957290000000     0.724480000000     0.0392643  
H48      H      0.459510000000     0.040480000000     0.787290000000     0.0424753  
H49      H      0.552420000000     0.994410000000     0.836540000000     0.0589467  
H50      H      0.459560000000     0.040070000000     0.723910000000     0.0401792  
H51      H      0.441230000000     0.003750000000     0.835650000000     0.0833297  
H52      H      0.497600000000     0.942850000000     0.675170000000     0.0547412  
H53      H      0.498340000000     0.054880000000     0.675700000000     0.0546714  
H54      H      0.534420000000     0.956940000000     0.787910000000     0.0391728  
H55      H      0.498770000000     0.054780000000     0.612760000000     0.0235089  
H56      H      0.501860000000     0.056030000000     0.400160000000     0.0237227  
H57      H      0.450690000000     0.004670000000     0.113040000000     0.028149   
H58      H      0.466280000000     0.042290000000     0.287510000000     0.0396284  
H59      H      0.542830000000     0.959360000000     0.225280000000     0.0428513  
H60      H      0.450050000000     0.005130000000     0.175500000000     0.0592602  
H61      H      0.542250000000     0.959720000000     0.288680000000     0.0406117  
H62      H      0.561250000000     0.995980000000     0.176800000000     0.0835495  
H63      H      0.503400000000     0.056790000000     0.337210000000     0.0549238  
H64      H      0.503090000000     0.944750000000     0.336590000000     0.0549284  
H65      H      0.467700000000     0.042680000000     0.224110000000     0.0394758  
H66      H      0.502040000000     0.944810000000     0.399540000000     0.0237695  
H67      H      0.004490000000     0.444960000000     0.888970000000     0.0275859  
H68      H      0.048200000000     0.498220000000     0.600400000000     0.0251976  
H69      H      0.038330000000     0.461460000000     0.775930000000     0.040047   
H70      H      0.958470000000     0.542720000000     0.715720000000     0.0415331  
H71      H      0.050920000000     0.498260000000     0.662860000000     0.0577398  
H72      H      0.960050000000     0.541790000000     0.779050000000     0.0405795  
H73      H      0.939770000000     0.506430000000     0.667750000000     0.0824754  
H74      H      0.003120000000     0.445160000000     0.825990000000     0.0561401  
H75      H      0.997940000000     0.557070000000     0.827240000000     0.0560774  
H76      H      0.035850000000     0.461550000000     0.712550000000     0.0387648  
H77      H      0.998790000000     0.555990000000     0.890180000000     0.0282226  
H78      H      0.992270000000     0.553030000000     0.103010000000     0.0271681  
H79      H      0.947030000000     0.475230000000     0.388320000000     0.0215678  
H80      H      0.950590000000     0.520990000000     0.212650000000     0.0413081  
H81      H      0.050740000000     0.474180000000     0.279050000000     0.0414667  
H82      H      0.949050000000     0.472230000000     0.325170000000     0.0585974  
H83      H      0.052210000000     0.473790000000     0.215230000000     0.041259   
H84      H      0.046300000000     0.527160000000     0.326010000000     0.0825255  
H85      H      0.991190000000     0.552650000000     0.166150000000     0.0575043  
H86      H      0.014060000000     0.443130000000     0.165340000000     0.0567443  
H87      H      0.948820000000     0.520740000000     0.276310000000     0.0408522  
H88      H      0.014200000000     0.444000000000     0.102120000000     0.027293   
H89      H      0.393400000000     0.945120000000     0.503570000000     0.0238076  
H90      H      0.105500000000     0.005940000000     0.553450000000     0.02711    
H91      H      0.282640000000     0.961280000000     0.464310000000     0.0403348  
H92      H      0.218090000000     0.042730000000     0.540560000000     0.0393288  
H93      H      0.167950000000     0.005660000000     0.555930000000     0.0585838  
H94      H      0.281480000000     0.041790000000     0.542510000000     0.0395451  
H95      H      0.172420000000     0.000180000000     0.444510000000     0.0830915  
H96      H      0.330490000000     0.945190000000     0.503150000000     0.0547871  
H97      H      0.331300000000     0.057190000000     0.505490000000     0.0547142  
H98      H      0.219330000000     0.961530000000     0.463080000000     0.0419929  
H99      H      0.394230000000     0.056300000000     0.506320000000     0.023605   
H100     H      0.605810000000     0.943120000000     0.507640000000     0.0236602  
H101     H      0.895740000000     0.003650000000     0.555860000000     0.0282467  
H102     H      0.717090000000     0.955970000000     0.470290000000     0.0403474  
H103     H      0.782770000000     0.039010000000     0.543800000000     0.0396572  
H104     H      0.833290000000     0.002780000000     0.559550000000     0.0588379  
H105     H      0.719390000000     0.038810000000     0.546010000000     0.0394835  
H106     H      0.826910000000     0.992670000000     0.448520000000     0.083353   
H107     H      0.668680000000     0.941970000000     0.508510000000     0.054568   
H108     H      0.670000000000     0.054000000000     0.508910000000     0.0548931  
H109     H      0.780340000000     0.955390000000     0.468970000000     0.0419959  
H110     H      0.607070000000     0.054320000000     0.508600000000     0.0237312  
H111     H      0.994330000000     0.895430000000     0.442500000000     0.0324649  
H112     H      0.946800000000     0.608590000000     0.518670000000     0.0264235  
H113     H      0.027020000000     0.782670000000     0.446230000000     0.0419637  
H114     H      0.976850000000     0.719100000000     0.546410000000     0.0389878  
H115     H      0.949000000000     0.671470000000     0.520330000000     0.0590115  
H116     H      0.976780000000     0.782130000000     0.546750000000     0.0396168  
H117     H      0.046880000000     0.668710000000     0.465790000000     0.0810155  
H118     H      0.993490000000     0.832680000000     0.441480000000     0.0578603  
H119     H      0.011100000000     0.831570000000     0.552350000000     0.0550388  
H120     H      0.024290000000     0.719810000000     0.444550000000     0.0435948  
H121     H      0.009930000000     0.894300000000     0.552630000000     0.0253594  
H122     H      0.048900000000     0.395000000000     0.495490000000     0.025608   
H123     H      0.002070000000     0.106870000000     0.445070000000     0.0302647  
H124     H      0.951980000000     0.283340000000     0.533650000000     0.0411684  
H125     H      0.035970000000     0.219700000000     0.459420000000     0.0397411  
H126     H      0.000290000000     0.169300000000     0.442750000000     0.0598834  
H127     H      0.034790000000     0.283060000000     0.457890000000     0.040043   
H128     H      0.990420000000     0.173190000000     0.553900000000     0.0829358  
H129     H      0.049290000000     0.332110000000     0.495710000000     0.0554032  
H130     H      0.937280000000     0.332110000000     0.495470000000     0.0558305  
H131     H      0.952440000000     0.219990000000     0.534360000000     0.0421736  
H132     H      0.937710000000     0.395090000000     0.495720000000     0.0271284  
N1       N      0.900820000000     0.493860000000     0.997390000000    -0.219845   
N2       N      0.604110000000     0.497420000000     0.000680000000    -0.208106   
N3       N      0.104350000000     0.505180000000     0.995920000000    -0.220064   
N4       N      0.400960000000     0.502080000000     0.001340000000    -0.208127   
N5       N      0.506330000000     0.897980000000     0.006310000000    -0.219375   
N6       N      0.504450000000     0.601330000000     0.001400000000    -0.208282   
N7       N      0.496660000000     0.101540000000     0.004890000000    -0.21912    
N8       N      0.500360000000     0.398170000000     0.001500000000    -0.208189   
N9       N      0.496490000000     0.999730000000     0.904320000000    -0.219795   
N10      N      0.498700000000     0.999190000000     0.607760000000    -0.208675   
N11      N      0.506220000000     0.999850000000     0.107910000000    -0.219474   
N12      N      0.501860000000     0.000400000000     0.404570000000    -0.208467   
N13      N      0.992510000000     0.502550000000     0.597030000000    -0.219498   
N14      N      0.001660000000     0.500420000000     0.894340000000    -0.206402   
N15      N      0.995460000000     0.502250000000     0.393450000000    -0.221003   
N16      N      0.003180000000     0.498540000000     0.097850000000    -0.206683   
N17      N      0.101970000000     0.002820000000     0.497630000000    -0.219522   
N18      N      0.398550000000     0.000680000000     0.504950000000    -0.20817    
N19      N      0.898210000000     0.998460000000     0.500150000000    -0.219469   
N20      N      0.601710000000     0.998780000000     0.507960000000    -0.208172   
N21      N      0.995050000000     0.602690000000     0.491560000000    -0.220853   
N22      N      0.002030000000     0.899570000000     0.497620000000    -0.206593   
N23      N      0.997070000000     0.103050000000     0.500730000000    -0.219226   
N24      N      0.993300000000     0.399780000000     0.495600000000    -0.207314   
O1       O      0.998770000000     0.050950000000     0.471050000000    -0.551136   
O2       O      0.000390000000     0.952270000000     0.469350000000    -0.547345   
O3       O      0.950490000000     0.000690000000     0.470800000000    -0.537117   
O4       O      0.048880000000     0.002430000000     0.469530000000    -0.536687   
O5       O      0.049790000000     0.002130000000     0.527210000000    -0.553117   
O6       O      0.951090000000     0.999270000000     0.528490000000    -0.550913   
O7       O      0.001990000000     0.951460000000     0.527270000000    -0.555681   
O8       O      0.998970000000     0.049930000000     0.528730000000    -0.534339   
O9       O      0.964480000000     0.452210000000     0.495140000000    -0.551168   
O10      O      0.965110000000     0.551020000000     0.494160000000    -0.547692   
O11      O      0.965400000000     0.500820000000     0.445120000000    -0.5523     
O12      O      0.964220000000     0.502150000000     0.543920000000    -0.532807   
O13      O      0.021880000000     0.501760000000     0.544690000000    -0.557755   
O14      O      0.023340000000     0.501240000000     0.446070000000    -0.53892    
O15      O      0.023050000000     0.550350000000     0.494250000000    -0.540354   
O16      O      0.022380000000     0.451990000000     0.495730000000    -0.558735   
O17      O      0.549140000000     0.970360000000     0.506810000000    -0.557243   
O18      O      0.450590000000     0.971280000000     0.505210000000    -0.557172   
O19      O      0.500690000000     0.971130000000     0.456690000000    -0.557759   
O20      O      0.499100000000     0.970520000000     0.555300000000    -0.557908   
O21      O      0.499660000000     0.028440000000     0.555650000000    -0.558207   
O22      O      0.501120000000     0.029050000000     0.457050000000    -0.557411   
O23      O      0.451090000000     0.029200000000     0.505680000000    -0.556395   
O24      O      0.549710000000     0.028280000000     0.507130000000    -0.556432   
O25      O      0.532610000000     0.001330000000     0.053930000000    -0.532421   
O26      O      0.527720000000     0.000900000000     0.955440000000    -0.556394   
O27      O      0.527770000000     0.050360000000     0.004530000000    -0.555851   
O28      O      0.532610000000     0.951950000000     0.004840000000    -0.532536   
O29      O      0.475090000000     0.949100000000     0.007620000000    -0.55495    
O30      O      0.470240000000     0.047600000000     0.007270000000    -0.531348   
O31      O      0.470210000000     0.998160000000     0.958310000000    -0.533229   
O32      O      0.475080000000     0.998620000000     0.056750000000    -0.556071   
O33      O      0.050120000000     0.531120000000     0.996300000000    -0.534246   
O34      O      0.951730000000     0.525390000000     0.996500000000    -0.558442   
O35      O      0.000880000000     0.527870000000     0.045750000000    -0.552089   
O36      O      0.000760000000     0.528820000000     0.947010000000    -0.551079   
O37      O      0.003630000000     0.471000000000     0.946460000000    -0.551141   
O38      O      0.005120000000     0.470120000000     0.045220000000    -0.550476   
O39      O      0.955040000000     0.467810000000     0.996570000000    -0.532954   
O40      O      0.053490000000     0.473550000000     0.995250000000    -0.557685   
O41      O      0.501570000000     0.450520000000     0.030270000000    -0.557844   
O42      O      0.503700000000     0.548990000000     0.030220000000    -0.557854   
O43      O      0.453290000000     0.500820000000     0.030340000000    -0.555511   
O44      O      0.551970000000     0.498640000000     0.030010000000    -0.555821   
O45      O      0.551680000000     0.498670000000     0.972050000000    -0.557369   
O46      O      0.453200000000     0.500850000000     0.972370000000    -0.557581   
O47      O      0.503480000000     0.549080000000     0.972260000000    -0.555946   
O48      O      0.501330000000     0.450400000000     0.972300000000    -0.555615   
V1       V      0.999630000000     0.001640000000     0.467900000000     1.42758    
V2       V      0.000500000000     0.000670000000     0.530230000000     1.4035     
V3       V      0.962480000000     0.501570000000     0.494560000000     1.39998    
V4       V      0.024930000000     0.501250000000     0.495300000000     1.42446    
V5       V      0.499850000000     0.968530000000     0.505980000000     1.40209    
V6       V      0.500420000000     0.031040000000     0.506380000000     1.39979    
V7       V      0.532460000000     0.001250000000     0.004580000000     1.42312    
V8       V      0.470370000000     0.998250000000     0.007620000000     1.42205    
V9       V      0.000760000000     0.530580000000     0.996400000000     1.41037    
V10      V      0.004440000000     0.468330000000     0.995830000000     1.40637    
V11      V      0.502640000000     0.499750000000     0.032500000000     1.39957    
V12      V      0.502420000000     0.499750000000     0.969950000000     1.39898    


