data_structure

_audit_creation_method RASPA-1.0
_audit_creation_date 2023-5-19
_audit_author_name 'Poobodin Mano'

_cell_length_a    38.4876
_cell_length_b    38.4859
_cell_length_c    38.487
_cell_angle_alpha 90
_cell_angle_beta  90
_cell_angle_gamma 90
_cell_volume      57008.1

_symmetry_cell_setting          triclinic
_symmetry_space_group_name_Hall 'P 1'
_symmetry_space_group_name_H-M  'P 1'
_symmetry_Int_Tables_number     1

_symmetry_equiv_pos_as_xyz 'x,y,z'

loop_
_atom_site_label
_atom_site_type_symbol
_atom_site_fract_x
_atom_site_fract_y
_atom_site_fract_z
_atom_site_charge
C1       C      0.999170000000     0.066100000000     0.500890000000     0.506367   
C2       C      0.997840000000     0.934100000000     0.502810000000     0.482224   
C3       C      0.932500000000     0.000680000000     0.501880000000     0.505085   
C4       C      0.064560000000     0.999400000000     0.502080000000     0.505374   
C5       C      0.999140000000     0.500590000000     0.434680000000     0.504972   
C6       C      0.999380000000     0.499750000000     0.566750000000     0.505298   
C7       C      0.999260000000     0.566170000000     0.501290000000     0.506102   
C8       C      0.999410000000     0.434150000000     0.500340000000     0.48206    
C9       C      0.564530000000     0.999100000000     0.499670000000     0.482259   
C10      C      0.432570000000     0.998270000000     0.499620000000     0.482156   
C11      C      0.498650000000     0.998910000000     0.433660000000     0.504358   
C12      C      0.498570000000     0.998270000000     0.565740000000     0.504417   
C13      C      0.500670000000     0.067330000000     0.999480000000     0.480227   
C14      C      0.499520000000     0.935310000000     0.000190000000     0.50434    
C15      C      0.500210000000     0.001750000000     0.065720000000     0.481447   
C16      C      0.499970000000     0.001020000000     0.933770000000     0.481224   
C17      C      0.003100000000     0.501760000000     0.066650000000     0.480994   
C18      C      0.003540000000     0.501410000000     0.934690000000     0.48112    
C19      C      0.069300000000     0.501070000000     0.000830000000     0.480474   
C20      C      0.937290000000     0.502260000000     0.000340000000     0.503885   
C21      C      0.503430000000     0.435310000000     0.999500000000     0.50499    
C22      C      0.503060000000     0.567320000000     0.000840000000     0.481556   
C23      C      0.437270000000     0.501110000000     0.001020000000     0.504875   
C24      C      0.569280000000     0.501490000000     0.999570000000     0.480887   
C25      C      0.846800000000     0.533150000000     0.998120000000    -0.221904   
C26      C      0.623200000000     0.500350000000     0.029930000000     0.0799874  
C27      C      0.622790000000     0.502490000000     0.968370000000     0.0807753  
C28      C      0.659480000000     0.500120000000     0.030160000000    -0.0952765  
C29      C      0.735060000000     0.478980000000     0.020960000000    -0.0385565  
C30      C      0.771370000000     0.479050000000     0.020990000000    -0.0231855  
C31      C      0.716470000000     0.501110000000     0.998630000000    -0.00224929 
C32      C      0.659080000000     0.502480000000     0.967670000000    -0.0947367  
C33      C      0.789910000000     0.501390000000     0.998840000000    -0.0274197  
C34      C      0.847380000000     0.470750000000     0.000670000000    -0.130849   
C35      C      0.771320000000     0.523500000000     0.976470000000    -0.0226783  
C36      C      0.883650000000     0.471580000000     0.000960000000     0.100571   
C37      C      0.883110000000     0.533190000000     0.998640000000     0.418394   
C38      C      0.735010000000     0.523290000000     0.976300000000    -0.037947   
C39      C      0.677880000000     0.501210000000     0.998800000000     0.0523693  
C40      C      0.828500000000     0.501760000000     0.999170000000     0.111166   
C41      C      0.346900000000     0.501530000000     0.032290000000    -0.221682   
C42      C      0.122860000000     0.469970000000     0.999820000000     0.0789572  
C43      C      0.123170000000     0.531540000000     0.001720000000     0.0793526  
C44      C      0.159160000000     0.469340000000     0.999630000000    -0.0958011  
C45      C      0.235060000000     0.478140000000     0.978580000000    -0.0384851  
C46      C      0.271390000000     0.478260000000     0.978520000000    -0.0234196  
C47      C      0.216470000000     0.500410000000     0.000770000000    -0.00269543 
C48      C      0.159440000000     0.531840000000     0.001770000000    -0.0957677  
C49      C      0.289900000000     0.500470000000     0.000840000000    -0.0271246  
C50      C      0.347230000000     0.499590000000     0.969880000000    -0.129772   
C51      C      0.271300000000     0.522650000000     0.023110000000    -0.0229476  
C52      C      0.383510000000     0.499920000000     0.970540000000     0.10244    
C53      C      0.383210000000     0.501640000000     0.032170000000     0.418864   
C54      C      0.235000000000     0.522690000000     0.023010000000    -0.0379829  
C55      C      0.177890000000     0.500510000000     0.000700000000     0.0521035  
C56      C      0.328480000000     0.500490000000     0.000980000000     0.111499   
C57      C      0.468930000000     0.844700000000     0.002480000000    -0.221613   
C58      C      0.503270000000     0.621220000000     0.970400000000     0.0803473  
C59      C      0.502120000000     0.620860000000     0.031990000000     0.0810575  
C60      C      0.503070000000     0.657490000000     0.970130000000    -0.0951666  
C61      C      0.523600000000     0.733300000000     0.979020000000    -0.0386904  
C62      C      0.523200000000     0.769610000000     0.979000000000    -0.0229665  
C63      C      0.501900000000     0.714510000000     0.001600000000    -0.00197361 
C64      C      0.501700000000     0.657160000000     0.032640000000    -0.0945009  
C65      C      0.500940000000     0.787940000000     0.001410000000    -0.0274045  
C66      C      0.531300000000     0.845520000000     0.999610000000    -0.130906   
C67      C      0.479210000000     0.769150000000     0.023970000000    -0.0223539  
C68      C      0.530340000000     0.881770000000     0.999400000000     0.100843   
C69      C      0.468750000000     0.881020000000     0.002030000000     0.418243   
C70      C      0.479770000000     0.732830000000     0.024150000000    -0.0379245  
C71      C      0.502240000000     0.675920000000     0.001480000000     0.0525991  
C72      C      0.500380000000     0.826520000000     0.001200000000     0.111372   
C73      C      0.501680000000     0.344910000000     0.968340000000    -0.222032   
C74      C      0.470330000000     0.121290000000     0.998740000000     0.0790129  
C75      C      0.531910000000     0.120790000000     0.000430000000     0.0787424  
C76      C      0.470160000000     0.157570000000     0.998780000000    -0.095783   
C77      C      0.479530000000     0.233250000000     0.977880000000    -0.0381961  
C78      C      0.479900000000     0.269550000000     0.977800000000    -0.0229661  
C79      C      0.501850000000     0.214500000000     0.999880000000    -0.00280852 
C80      C      0.532660000000     0.157070000000     0.000690000000    -0.0958048  
C81      C      0.502480000000     0.287930000000     0.999850000000    -0.0273896  
C82      C      0.504480000000     0.345290000000     0.030730000000    -0.13005    
C83      C      0.524690000000     0.269200000000     0.021980000000    -0.0235005  
C84      C      0.504590000000     0.381570000000     0.030020000000     0.10204    
C85      C      0.502010000000     0.381220000000     0.968420000000     0.418677   
C86      C      0.524450000000     0.232880000000     0.021920000000    -0.0388422  
C87      C      0.501550000000     0.175920000000     0.999810000000     0.0517406  
C88      C      0.502910000000     0.326520000000     0.999660000000     0.111313   
C89      C      0.500240000000     0.967700000000     0.656350000000    -0.221696   
C90      C      0.530640000000     0.999870000000     0.879980000000     0.0798512  
C91      C      0.469070000000     0.001770000000     0.880110000000     0.0808119  
C92      C      0.531020000000     0.999610000000     0.843690000000    -0.0956384  
C93      C      0.521960000000     0.978080000000     0.768110000000    -0.0377745  
C94      C      0.521730000000     0.977670000000     0.731800000000    -0.0226353  
C95      C      0.499630000000     0.000330000000     0.786570000000    -0.00220109 
C96      C      0.468530000000     0.001730000000     0.843820000000    -0.0947511  
C97      C      0.499300000000     0.999630000000     0.713130000000    -0.0272523  
C98      C      0.497580000000     0.030090000000     0.655540000000    -0.130836   
C99      C      0.477080000000     0.021990000000     0.731580000000    -0.0229827  
C100     C      0.497520000000     0.029140000000     0.619280000000     0.100786   
C101     C      0.499950000000     0.967530000000     0.620040000000     0.418906   
C102     C      0.477170000000     0.022260000000     0.767890000000    -0.0385263  
C103     C      0.499730000000     0.000590000000     0.825160000000     0.052587   
C104     C      0.499030000000     0.999150000000     0.674530000000     0.111407   
C105     C      0.500540000000     0.969070000000     0.342840000000    -0.222195   
C106     C      0.469510000000     0.003250000000     0.119470000000     0.0809611  
C107     C      0.531070000000     0.001000000000     0.119400000000     0.0797978  
C108     C      0.469090000000     0.003520000000     0.155750000000    -0.0947976  
C109     C      0.478020000000     0.024230000000     0.231580000000    -0.038802   
C110     C      0.477900000000     0.023910000000     0.267900000000    -0.0232568  
C111     C      0.500370000000     0.002200000000     0.212900000000    -0.00231159 
C112     C      0.531570000000     0.001060000000     0.155680000000    -0.0956529  
C113     C      0.499990000000     0.001400000000     0.286320000000    -0.0274884  
C114     C      0.498100000000     0.031470000000     0.344120000000    -0.131022   
C115     C      0.522380000000     0.979410000000     0.267630000000    -0.0228183  
C116     C      0.497870000000     0.030230000000     0.380380000000     0.10056    
C117     C      0.500100000000     0.968620000000     0.379130000000     0.418699   
C118     C      0.522630000000     0.979860000000     0.231330000000    -0.0380312  
C119     C      0.500350000000     0.002330000000     0.174310000000     0.05238    
C120     C      0.499540000000     0.000670000000     0.324900000000     0.111263   
C121     C      0.969380000000     0.498820000000     0.657550000000    -0.221639   
C122     C      0.002360000000     0.470370000000     0.881150000000     0.0800171  
C123     C      0.004690000000     0.531920000000     0.880810000000     0.0812144  
C124     C      0.002070000000     0.469700000000     0.844880000000    -0.0957102  
C125     C      0.980210000000     0.478230000000     0.769420000000    -0.037675   
C126     C      0.979630000000     0.478060000000     0.733120000000    -0.0227692  
C127     C      0.002720000000     0.500590000000     0.787520000000    -0.00224223 
C128     C      0.004620000000     0.532180000000     0.844510000000    -0.0946652  
C129     C      0.001660000000     0.500120000000     0.714100000000    -0.0268618  
C130     C      0.031780000000     0.500970000000     0.656330000000    -0.129791   
C131     C      0.024270000000     0.522390000000     0.732190000000    -0.0229669  
C132     C      0.030600000000     0.500720000000     0.620080000000     0.10287    
C133     C      0.968990000000     0.498790000000     0.621240000000     0.419616   
C134     C      0.024720000000     0.522690000000     0.768510000000    -0.0381178  
C135     C      0.003190000000     0.500840000000     0.826100000000     0.0527022  
C136     C      0.000950000000     0.499970000000     0.675520000000     0.111929   
C137     C      0.968820000000     0.499980000000     0.343970000000    -0.221513   
C138     C      0.003800000000     0.532580000000     0.120380000000     0.0807638  
C139     C      0.001880000000     0.471010000000     0.120360000000     0.0799021  
C140     C      0.003630000000     0.533030000000     0.156680000000    -0.0946541  
C141     C      0.023730000000     0.524050000000     0.232770000000    -0.0382127  
C142     C      0.023330000000     0.523860000000     0.269090000000    -0.0230336  
C143     C      0.001880000000     0.501720000000     0.213850000000    -0.00225427 
C144     C      0.001490000000     0.470530000000     0.156640000000    -0.0956226  
C145     C      0.000910000000     0.501490000000     0.287290000000    -0.0268883  
C146     C      0.031210000000     0.502580000000     0.344980000000    -0.129703   
C147     C      0.978990000000     0.479230000000     0.268360000000    -0.0228193  
C148     C      0.030160000000     0.502200000000     0.381240000000     0.102389   
C149     C      0.968550000000     0.499820000000     0.380280000000     0.419519   
C150     C      0.979530000000     0.479280000000     0.232060000000    -0.037767   
C151     C      0.002380000000     0.501770000000     0.175260000000     0.0525178  
C152     C      0.000320000000     0.501380000000     0.325880000000     0.111601   
C153     C      0.155210000000     0.000030000000     0.532520000000    -0.221531   
C154     C      0.378920000000     0.967320000000     0.498660000000     0.0827592  
C155     C      0.378790000000     0.028890000000     0.500390000000     0.0807411  
C156     C      0.342620000000     0.966790000000     0.498590000000    -0.0935419  
C157     C      0.266560000000     0.975560000000     0.478140000000    -0.038165   
C158     C      0.230240000000     0.975750000000     0.478380000000    -0.0224552  
C159     C      0.285380000000     0.998030000000     0.499950000000    -0.00174513 
C160     C      0.342520000000     0.029290000000     0.500520000000    -0.095335   
C161     C      0.211940000000     0.998250000000     0.500590000000    -0.0269269  
C162     C      0.154310000000     0.996880000000     0.470160000000    -0.129647   
C163     C      0.230770000000     0.020650000000     0.522440000000    -0.0222821  
C164     C      0.118040000000     0.997340000000     0.471140000000     0.102781   
C165     C      0.118910000000     0.000260000000     0.532720000000     0.419662   
C166     C      0.267070000000     0.020590000000     0.522080000000    -0.0376755  
C167     C      0.323970000000     0.998020000000     0.499630000000     0.0529994  
C168     C      0.173350000000     0.998340000000     0.501070000000     0.111973   
C169     C      0.841780000000     0.002370000000     0.532070000000    -0.221735   
C170     C      0.618500000000     0.968760000000     0.498580000000     0.083017   
C171     C      0.617980000000     0.030330000000     0.500380000000     0.0809068  
C172     C      0.654800000000     0.968610000000     0.498370000000    -0.0936087  
C173     C      0.730580000000     0.978090000000     0.477550000000    -0.0382166  
C174     C      0.766890000000     0.978410000000     0.477730000000    -0.0225913  
C175     C      0.711700000000     0.000390000000     0.499470000000    -0.00173851 
C176     C      0.654250000000     0.031120000000     0.500380000000    -0.0953141  
C177     C      0.785130000000     0.000890000000     0.500000000000    -0.0269687  
C178     C      0.842830000000     0.999480000000     0.469700000000    -0.129938   
C179     C      0.766250000000     0.023200000000     0.521910000000    -0.0222801  
C180     C      0.879090000000     0.999580000000     0.470780000000     0.102515   
C181     C      0.878080000000     0.002250000000     0.532380000000     0.419536   
C182     C      0.729950000000     0.023010000000     0.521580000000    -0.0376793  
C183     C      0.673120000000     0.000030000000     0.499350000000     0.0530863  
C184     C      0.823720000000     0.000930000000     0.500570000000     0.112066   
C185     C      0.029300000000     0.656920000000     0.504020000000    -0.221329   
C186     C      0.996310000000     0.880100000000     0.472610000000     0.0811972  
C187     C      0.998140000000     0.880680000000     0.534180000000     0.0829795  
C188     C      0.995830000000     0.843830000000     0.472480000000    -0.0949588  
C189     C      0.974450000000     0.768320000000     0.481770000000    -0.0377408  
C190     C      0.974640000000     0.732010000000     0.481650000000    -0.0225666  
C191     C      0.996520000000     0.786930000000     0.504150000000    -0.00157362 
C192     C      0.997890000000     0.844380000000     0.534980000000    -0.0935415  
C193     C      0.997060000000     0.713510000000     0.503760000000    -0.02648    
C194     C      0.966900000000     0.655780000000     0.501600000000    -0.128719   
C195     C      0.019040000000     0.732120000000     0.526230000000    -0.0218645  
C196     C      0.968070000000     0.619520000000     0.501050000000     0.104509   
C197     C      0.029680000000     0.620620000000     0.503250000000     0.420028   
C198     C      0.018700000000     0.768430000000     0.526500000000    -0.0372926  
C199     C      0.996680000000     0.825520000000     0.503890000000     0.0533923  
C200     C      0.997740000000     0.674930000000     0.503170000000     0.112357   
C201     C      0.000990000000     0.156400000000     0.469400000000    -0.221317   
C202     C      0.030300000000     0.380490000000     0.499360000000     0.0810274  
C203     C      0.968740000000     0.380360000000     0.501300000000     0.0830727  
C204     C      0.030850000000     0.344200000000     0.499360000000    -0.0949334  
C205     C      0.022160000000     0.268370000000     0.478580000000    -0.0376617  
C206     C      0.022130000000     0.232060000000     0.478570000000    -0.0223826  
C207     C      0.999740000000     0.286940000000     0.500630000000    -0.00175945 
C208     C      0.968360000000     0.344070000000     0.501520000000    -0.0935685  
C209     C      0.999820000000     0.213500000000     0.500750000000    -0.0266904  
C210     C      0.998360000000     0.156220000000     0.531800000000    -0.128764   
C211     C      0.977500000000     0.232070000000     0.522910000000    -0.0225527  
C212     C      0.998340000000     0.119950000000     0.531220000000     0.10444    
C213     C      0.000740000000     0.120090000000     0.469610000000     0.419818   
C214     C      0.977390000000     0.268390000000     0.522780000000    -0.0379732  
C215     C      0.999650000000     0.325540000000     0.500510000000     0.0530679  
C216     C      0.999740000000     0.174900000000     0.500660000000     0.112085   
F1       F      0.899280000000     0.564570000000     0.997660000000    -0.454832   
F2       F      0.399500000000     0.502620000000     0.063490000000    -0.454764   
F3       F      0.437330000000     0.897110000000     0.003220000000    -0.454609   
F4       F      0.500830000000     0.397480000000     0.937090000000    -0.45501    
F5       F      0.501090000000     0.936100000000     0.603980000000    -0.452658   
F6       F      0.501040000000     0.937050000000     0.394930000000    -0.453123   
F7       F      0.937450000000     0.497730000000     0.605390000000    -0.452619   
F8       F      0.937080000000     0.498500000000     0.396230000000    -0.452869   
F9       F      0.102920000000     0.001880000000     0.564170000000    -0.452606   
F10      F      0.894010000000     0.003600000000     0.563870000000    -0.452755   
F11      F      0.061210000000     0.604740000000     0.504040000000    -0.454121   
F12      F      0.001900000000     0.103710000000     0.438340000000    -0.454349   
H1       H      0.609300000000     0.503340000000     0.943660000000     0.0289769  
H2       H      0.897050000000     0.446830000000     0.002010000000     0.0196535  
H3       H      0.721430000000     0.540860000000     0.959010000000     0.0425405  
H4       H      0.784940000000     0.461930000000     0.038730000000     0.0370082  
H5       H      0.834260000000     0.445860000000     0.001150000000     0.0638866  
H6       H      0.721530000000     0.461350000000     0.038230000000     0.0413319  
H7       H      0.833090000000     0.557720000000     0.997370000000     0.118198   
H8       H      0.672310000000     0.502990000000     0.942830000000     0.057058   
H9       H      0.673000000000     0.499560000000     0.054840000000     0.0560498  
H10      H      0.784860000000     0.540780000000     0.958860000000     0.0417503  
H11      H      0.610070000000     0.499580000000     0.054840000000     0.0260556  
H12      H      0.109990000000     0.556430000000     0.002450000000     0.0259293  
H13      H      0.396820000000     0.499340000000     0.945720000000     0.0249055  
H14      H      0.221420000000     0.539920000000     0.040640000000     0.0422445  
H15      H      0.284990000000     0.460660000000     0.961280000000     0.0381791  
H16      H      0.333980000000     0.499130000000     0.945050000000     0.0656367  
H17      H      0.221520000000     0.460900000000     0.960930000000     0.0411107  
H18      H      0.333300000000     0.501860000000     0.056940000000     0.118068   
H19      H      0.172920000000     0.556540000000     0.002210000000     0.0560154  
H20      H      0.172440000000     0.444530000000     0.999150000000     0.0553805  
H21      H      0.284820000000     0.540280000000     0.040380000000     0.0416836  
H22      H      0.109420000000     0.445230000000     0.999110000000     0.0243001  
H23      H      0.501810000000     0.607390000000     0.056730000000     0.0297245  
H24      H      0.555050000000     0.895260000000     0.998260000000     0.0198958  
H25      H      0.462520000000     0.719080000000     0.041630000000     0.0437604  
H26      H      0.540030000000     0.783340000000     0.961100000000     0.0374127  
H27      H      0.556240000000     0.832480000000     0.998970000000     0.0641661  
H28      H      0.541170000000     0.719940000000     0.961570000000     0.041591   
H29      H      0.444410000000     0.830890000000     0.003350000000     0.118377   
H30      H      0.501410000000     0.670410000000     0.057470000000     0.0573257  
H31      H      0.503110000000     0.670990000000     0.945430000000     0.056524   
H32      H      0.461990000000     0.782540000000     0.041760000000     0.0420398  
H33      H      0.503780000000     0.608060000000     0.945490000000     0.0263545  
H34      H      0.556620000000     0.107280000000     0.001000000000     0.0242158  
H35      H      0.505670000000     0.394910000000     0.054810000000     0.0239111  
H36      H      0.541730000000     0.219180000000     0.039400000000     0.0405393  
H37      H      0.462250000000     0.283240000000     0.960690000000     0.0414434  
H38      H      0.505120000000     0.332070000000     0.055570000000     0.0650881  
H39      H      0.462030000000     0.219840000000     0.960380000000     0.0418029  
H40      H      0.500880000000     0.331300000000     0.943720000000     0.117842   
H41      H      0.557530000000     0.170250000000     0.001090000000     0.0549957  
H42      H      0.445500000000     0.171140000000     0.998470000000     0.0554516  
H43      H      0.542590000000     0.282620000000     0.039060000000     0.0367835  
H44      H      0.445410000000     0.108180000000     0.998060000000     0.0255056  
H45      H      0.444280000000     0.002530000000     0.893470000000     0.0289155  
H46      H      0.496520000000     0.053840000000     0.605780000000     0.0198392  
H47      H      0.459890000000     0.039920000000     0.781360000000     0.0413634  
H48      H      0.539380000000     0.960390000000     0.718330000000     0.0420376  
H49      H      0.496990000000     0.055020000000     0.668580000000     0.0639981  
H50      H      0.539350000000     0.960660000000     0.781740000000     0.0427666  
H51      H      0.500960000000     0.943170000000     0.670140000000     0.119096   
H52      H      0.443740000000     0.002110000000     0.830500000000     0.0573533  
H53      H      0.555750000000     0.999100000000     0.830270000000     0.0555842  
H54      H      0.459280000000     0.039010000000     0.717940000000     0.037314   
H55      H      0.555490000000     0.999210000000     0.893240000000     0.0246597  
H56      H      0.555860000000     0.000090000000     0.106060000000     0.0244546  
H57      H      0.496900000000     0.054820000000     0.394080000000     0.0196529  
H58      H      0.539930000000     0.962360000000     0.217690000000     0.0425279  
H59      H      0.460160000000     0.040960000000     0.281560000000     0.036937   
H60      H      0.497640000000     0.056500000000     0.331260000000     0.0636219  
H61      H      0.460810000000     0.041970000000     0.218130000000     0.0409863  
H62      H      0.501220000000     0.944650000000     0.328860000000     0.118866   
H63      H      0.556350000000     0.000510000000     0.169030000000     0.0550962  
H64      H      0.444350000000     0.004120000000     0.169150000000     0.0571746  
H65      H      0.539940000000     0.962010000000     0.281080000000     0.0415557  
H66      H      0.444680000000     0.004030000000     0.106190000000     0.0291259  
H67      H      0.005630000000     0.556800000000     0.893990000000     0.0293911  
H68      H      0.055230000000     0.501420000000     0.606410000000     0.0250392  
H69      H      0.042570000000     0.539990000000     0.781710000000     0.0418993  
H70      H      0.962150000000     0.460380000000     0.719940000000     0.0417634  
H71      H      0.056800000000     0.501490000000     0.669220000000     0.0657419  
H72      H      0.962720000000     0.461120000000     0.783330000000     0.0425909  
H73      H      0.944940000000     0.498410000000     0.671490000000     0.119192   
H74      H      0.005150000000     0.556860000000     0.830990000000     0.0577824  
H75      H      0.001370000000     0.444870000000     0.831650000000     0.0554112  
H76      H      0.041340000000     0.539900000000     0.718270000000     0.0389999  
H77      H      0.001530000000     0.445620000000     0.894590000000     0.0245746  
H78      H      0.001260000000     0.446190000000     0.107060000000     0.0245373  
H79      H      0.054820000000     0.503030000000     0.394820000000     0.0246959  
H80      H      0.962160000000     0.461990000000     0.218230000000     0.0424001  
H81      H      0.040310000000     0.541530000000     0.282930000000     0.0387427  
H82      H      0.056170000000     0.503310000000     0.332000000000     0.0656756  
H83      H      0.041450000000     0.541420000000     0.219500000000     0.0418483  
H84      H      0.944330000000     0.499420000000     0.330100000000     0.118838   
H85      H      0.000930000000     0.445760000000     0.170000000000     0.0554108  
H86      H      0.003970000000     0.557780000000     0.170070000000     0.057388   
H87      H      0.961650000000     0.461470000000     0.281630000000     0.0417526  
H88      H      0.004610000000     0.557390000000     0.107070000000     0.0289737  
H89      H      0.392040000000     0.053750000000     0.501010000000     0.0247846  
H90      H      0.104500000000     0.996330000000     0.446460000000     0.0246348  
H91      H      0.280800000000     0.037980000000     0.539420000000     0.0426808  
H92      H      0.216470000000     0.957970000000     0.461450000000     0.0383692  
H93      H      0.167330000000     0.995920000000     0.445220000000     0.0658962  
H94      H      0.279920000000     0.958090000000     0.460590000000     0.0431941  
H95      H      0.169030000000     0.000760000000     0.557030000000     0.119111   
H96      H      0.329120000000     0.054040000000     0.500900000000     0.0556409  
H97      H      0.329280000000     0.942010000000     0.498260000000     0.0592645  
H98      H      0.217440000000     0.038520000000     0.539610000000     0.0421391  
H99      H      0.392290000000     0.942530000000     0.498020000000     0.0339042  
H100     H      0.604460000000     0.055040000000     0.501090000000     0.0249438  
H101     H      0.892700000000     0.998520000000     0.446140000000     0.0241857  
H102     H      0.716170000000     0.040290000000     0.539000000000     0.0427884  
H103     H      0.780700000000     0.960700000000     0.460770000000     0.0380719  
H104     H      0.829870000000     0.998710000000     0.444730000000     0.0656915  
H105     H      0.717260000000     0.960590000000     0.459980000000     0.0429518  
H106     H      0.827910000000     0.003120000000     0.556550000000     0.119056   
H107     H      0.667400000000     0.056000000000     0.500760000000     0.0558483  
H108     H      0.668390000000     0.943970000000     0.497960000000     0.0592316  
H109     H      0.779560000000     0.041060000000     0.539120000000     0.0421275  
H110     H      0.605400000000     0.943830000000     0.497950000000     0.0343579  
H111     H      0.998980000000     0.894240000000     0.558860000000     0.0339374  
H112     H      0.943440000000     0.605890000000     0.499960000000     0.0293208  
H113     H      0.036210000000     0.782030000000     0.543830000000     0.044387   
H114     H      0.957610000000     0.718420000000     0.463850000000     0.0392866  
H115     H      0.941900000000     0.668690000000     0.501250000000     0.0680191  
H116     H      0.956830000000     0.781830000000     0.464480000000     0.0425529  
H117     H      0.053750000000     0.670850000000     0.504810000000     0.118852   
H118     H      0.998220000000     0.831220000000     0.559850000000     0.0593342  
H119     H      0.995310000000     0.830240000000     0.447840000000     0.0566711  
H120     H      0.036360000000     0.718600000000     0.543810000000     0.0428942  
H121     H      0.995760000000     0.893160000000     0.447660000000     0.0263751  
H122     H      0.943890000000     0.393620000000     0.502000000000     0.0342657  
H123     H      0.997350000000     0.106700000000     0.556060000000     0.0295095  
H124     H      0.960040000000     0.281950000000     0.540300000000     0.0433435  
H125     H      0.039850000000     0.218500000000     0.461420000000     0.0419023  
H126     H      0.997750000000     0.169520000000     0.556590000000     0.0674926  
H127     H      0.039470000000     0.281910000000     0.461000000000     0.0427057  
H128     H      0.001680000000     0.169940000000     0.444730000000     0.118418   
H129     H      0.943630000000     0.330640000000     0.502010000000     0.0590681  
H130     H      0.055640000000     0.330890000000     0.498930000000     0.0562389  
H131     H      0.959790000000     0.218520000000     0.540080000000     0.0393631  
H132     H      0.055090000000     0.393850000000     0.498610000000     0.0263183  
N1       N      0.901540000000     0.502500000000     0.000000000000    -0.256886   
N2       N      0.604950000000     0.501460000000     0.999270000000    -0.206992   
N3       N      0.401520000000     0.500900000000     0.001380000000    -0.256076   
N4       N      0.104970000000     0.500840000000     0.000810000000    -0.207831   
N5       N      0.499370000000     0.899560000000     0.000530000000    -0.256879   
N6       N      0.502840000000     0.602990000000     0.001090000000    -0.206922   
N7       N      0.503370000000     0.399560000000     0.999170000000    -0.256289   
N8       N      0.500970000000     0.103000000000     0.999520000000    -0.207858   
N9       N      0.498670000000     0.998160000000     0.601490000000    -0.256804   
N10      N      0.499900000000     0.000880000000     0.898090000000    -0.207121   
N11      N      0.498850000000     0.999110000000     0.397920000000    -0.256996   
N12      N      0.500270000000     0.002000000000     0.101390000000    -0.207154   
N13      N      0.999510000000     0.499720000000     0.602500000000    -0.256093   
N14      N      0.003550000000     0.501250000000     0.899020000000    -0.207123   
N15      N      0.999130000000     0.500860000000     0.398920000000    -0.256017   
N16      N      0.002940000000     0.501790000000     0.102330000000    -0.207096   
N17      N      0.100310000000     0.999010000000     0.502120000000    -0.256008   
N18      N      0.396900000000     0.998140000000     0.499560000000    -0.206467   
N19      N      0.896750000000     0.000870000000     0.501820000000    -0.256028   
N20      N      0.600200000000     0.999390000000     0.499560000000    -0.206333   
N21      N      0.999150000000     0.601910000000     0.501830000000    -0.255532   
N22      N      0.997430000000     0.898430000000     0.503220000000    -0.206246   
N23      N      0.999430000000     0.101850000000     0.500420000000    -0.255346   
N24      N      0.999480000000     0.398470000000     0.500310000000    -0.206063   
O1       O      0.999190000000     0.048940000000     0.472250000000    -0.515802   
O2       O      0.997930000000     0.950370000000     0.473630000000    -0.55681    
O3       O      0.949210000000     0.000200000000     0.472930000000    -0.556231   
O4       O      0.047930000000     0.999010000000     0.473080000000    -0.555513   
O5       O      0.047780000000     0.000140000000     0.530930000000    -0.51733    
O6       O      0.949210000000     0.000890000000     0.530790000000    -0.517397   
O7       O      0.998140000000     0.951140000000     0.531560000000    -0.54728    
O8       O      0.998830000000     0.049840000000     0.530090000000    -0.551632   
O9       O      0.970270000000     0.500270000000     0.451460000000    -0.517009   
O10      O      0.970450000000     0.499860000000     0.550070000000    -0.516879   
O11      O      0.970330000000     0.549430000000     0.500990000000    -0.552549   
O12      O      0.970410000000     0.450750000000     0.500600000000    -0.546693   
O13      O      0.028350000000     0.450860000000     0.500210000000    -0.555895   
O14      O      0.028180000000     0.549480000000     0.501170000000    -0.515749   
O15      O      0.028310000000     0.499780000000     0.550000000000    -0.556007   
O16      O      0.028130000000     0.500670000000     0.451320000000    -0.556584   
O17      O      0.548080000000     0.970020000000     0.499520000000    -0.546631   
O18      O      0.449380000000     0.969390000000     0.499490000000    -0.547274   
O19      O      0.498800000000     0.969940000000     0.450260000000    -0.51785    
O20      O      0.498770000000     0.969460000000     0.548860000000    -0.517227   
O21      O      0.498310000000     0.027320000000     0.549190000000    -0.560625   
O22      O      0.498370000000     0.027800000000     0.450490000000    -0.56059    
O23      O      0.449070000000     0.027320000000     0.499830000000    -0.556101   
O24      O      0.547660000000     0.027950000000     0.499890000000    -0.555505   
O25      O      0.471560000000     0.050930000000     0.999420000000    -0.557276   
O26      O      0.470750000000     0.952270000000     0.000240000000    -0.516022   
O27      O      0.471220000000     0.002030000000     0.049120000000    -0.551789   
O28      O      0.471040000000     0.001260000000     0.950480000000    -0.552266   
O29      O      0.528970000000     0.000920000000     0.950370000000    -0.555896   
O30      O      0.529150000000     0.001230000000     0.049020000000    -0.555858   
O31      O      0.528610000000     0.951780000000     0.999840000000    -0.561227   
O32      O      0.529500000000     0.050420000000     0.999600000000    -0.556342   
O33      O      0.002980000000     0.472770000000     0.050050000000    -0.556252   
O34      O      0.003080000000     0.472500000000     0.951440000000    -0.556058   
O35      O      0.052420000000     0.472230000000     0.000750000000    -0.555783   
O36      O      0.953730000000     0.473140000000     0.000690000000    -0.560618   
O37      O      0.954280000000     0.531010000000     0.000250000000    -0.516396   
O38      O      0.052880000000     0.530170000000     0.000900000000    -0.557636   
O39      O      0.003910000000     0.530440000000     0.951250000000    -0.550994   
O40      O      0.003330000000     0.530710000000     0.049940000000    -0.551626   
O41      O      0.503770000000     0.451700000000     0.028640000000    -0.556636   
O42      O      0.503420000000     0.550410000000     0.029660000000    -0.550951   
O43      O      0.454330000000     0.500920000000     0.029720000000    -0.516371   
O44      O      0.552900000000     0.501160000000     0.028690000000    -0.557295   
O45      O      0.552340000000     0.501780000000     0.970750000000    -0.551232   
O46      O      0.453630000000     0.501430000000     0.971860000000    -0.555585   
O47      O      0.502860000000     0.550920000000     0.971730000000    -0.556838   
O48      O      0.503090000000     0.452330000000     0.970790000000    -0.516665   
V1       V      0.998570000000     0.999610000000     0.470680000000     1.41151    
V2       V      0.998490000000     0.000530000000     0.533130000000     1.43474    
V3       V      0.968080000000     0.500080000000     0.500770000000     1.43427    
V4       V      0.030530000000     0.500190000000     0.500660000000     1.41201    
V5       V      0.498760000000     0.967410000000     0.499530000000     1.43752    
V6       V      0.498340000000     0.029890000000     0.499860000000     1.39385    
V7       V      0.468850000000     0.001630000000     0.999810000000     1.41832    
V8       V      0.531350000000     0.001070000000     0.999690000000     1.39719    
V9       V      0.003040000000     0.470370000000     0.000750000000     1.39647    
V10      V      0.003610000000     0.532870000000     0.000590000000     1.41893    
V11      V      0.503640000000     0.501030000000     0.031470000000     1.41565    
V12      V      0.502960000000     0.501640000000     0.969000000000     1.41513    


