data_structure

_audit_creation_method RASPA-1.0
_audit_creation_date 2023-5-19
_audit_author_name 'Poobodin Mano'

_cell_length_a    38.498
_cell_length_b    38.4944
_cell_length_c    38.495
_cell_angle_alpha 90
_cell_angle_beta  90
_cell_angle_gamma 90
_cell_volume      57048

_symmetry_cell_setting          triclinic
_symmetry_space_group_name_Hall 'P 1'
_symmetry_space_group_name_H-M  'P 1'
_symmetry_Int_Tables_number     1

_symmetry_equiv_pos_as_xyz 'x,y,z'

loop_
_atom_site_label
_atom_site_type_symbol
_atom_site_fract_x
_atom_site_fract_y
_atom_site_fract_z
_atom_site_charge
C1       C      0.065870000000     0.001090000000     0.500830000000     0.490624   
C2       C      0.933780000000     0.001890000000     0.500330000000     0.488011   
C3       C      0.000350000000     0.067430000000     0.500900000000     0.488497   
C4       C      0.999400000000     0.935330000000     0.499790000000     0.489823   
C5       C      0.004900000000     0.435310000000     0.503630000000     0.479868   
C6       C      0.003790000000     0.567240000000     0.502540000000     0.479693   
C7       C      0.004220000000     0.500700000000     0.436920000000     0.489019   
C8       C      0.004750000000     0.501650000000     0.569030000000     0.489244   
C9       C      0.565750000000     0.002650000000     0.496320000000     0.479596   
C10      C      0.433840000000     0.002490000000     0.497720000000     0.479595   
C11      C      0.498840000000     0.002120000000     0.431070000000     0.489004   
C12      C      0.500520000000     0.003310000000     0.563160000000     0.488644   
C13      C      0.495450000000     0.997370000000     0.063160000000     0.478844   
C14      C      0.496520000000     0.998980000000     0.931240000000     0.480506   
C15      C      0.496210000000     0.064270000000     0.998260000000     0.488704   
C16      C      0.495500000000     0.932180000000     0.996600000000     0.489331   
C17      C      0.999810000000     0.497380000000     0.068910000000     0.479083   
C18      C      0.000470000000     0.498500000000     0.936980000000     0.479941   
C19      C      0.066170000000     0.498190000000     0.003160000000     0.47925    
C20      C      0.934160000000     0.497460000000     0.002510000000     0.489021   
C21      C      0.434250000000     0.497640000000     0.002840000000     0.488727   
C22      C      0.566230000000     0.498850000000     0.000410000000     0.479151   
C23      C      0.500890000000     0.432260000000     0.002070000000     0.478776   
C24      C      0.499780000000     0.564180000000     0.000870000000     0.479923   
C25      C      0.843130000000     0.467480000000     0.999720000000    -0.168914   
C26      C      0.620280000000     0.500690000000     0.030460000000     0.0772456  
C27      C      0.619570000000     0.498450000000     0.968910000000     0.0770751  
C28      C      0.656530000000     0.501290000000     0.030500000000    -0.0973634  
C29      C      0.731930000000     0.522780000000     0.021000000000    -0.0385729  
C30      C      0.768220000000     0.522550000000     0.021200000000    -0.030265   
C31      C      0.713350000000     0.500550000000     0.998760000000    -0.00605099 
C32      C      0.655850000000     0.498810000000     0.968030000000    -0.0971911  
C33      C      0.786740000000     0.499960000000     0.999310000000    -0.020198   
C34      C      0.844580000000     0.529810000000     0.001640000000    -0.116733   
C35      C      0.768170000000     0.477870000000     0.976920000000    -0.0298655  
C36      C      0.880800000000     0.528480000000     0.002440000000     0.0868764  
C37      C      0.879470000000     0.466810000000     0.000940000000     0.246419   
C38      C      0.731870000000     0.478240000000     0.976580000000    -0.0382268  
C39      C      0.674780000000     0.500300000000     0.999070000000     0.050719   
C40      C      0.825300000000     0.499100000000     0.000140000000     0.082534   
C41      C      0.343660000000     0.496070000000     0.034190000000    -0.169037   
C42      C      0.119860000000     0.529070000000     0.002430000000     0.0773151  
C43      C      0.119900000000     0.467500000000     0.003500000000     0.0774435  
C44      C      0.156150000000     0.529550000000     0.002130000000    -0.0971142  
C45      C      0.231990000000     0.520810000000     0.980880000000    -0.0382633  
C46      C      0.268310000000     0.520570000000     0.980790000000    -0.0294107  
C47      C      0.213330000000     0.498220000000     0.002680000000    -0.00585145 
C48      C      0.156160000000     0.467040000000     0.003410000000    -0.0972244  
C49      C      0.286760000000     0.497900000000     0.002680000000    -0.0203396  
C50      C      0.344170000000     0.499340000000     0.971900000000    -0.116545   
C51      C      0.268090000000     0.475350000000     0.024510000000    -0.0293952  
C52      C      0.380420000000     0.499020000000     0.972640000000     0.0870217  
C53      C      0.380030000000     0.495790000000     0.034260000000     0.246693   
C54      C      0.231800000000     0.475460000000     0.024460000000    -0.0383088  
C55      C      0.174750000000     0.498290000000     0.002700000000     0.0508354  
C56      C      0.325340000000     0.497820000000     0.002900000000     0.0829779  
C57      C      0.465450000000     0.841120000000     0.995990000000    -0.169193   
C58      C      0.498280000000     0.617440000000     0.969400000000     0.0778806  
C59      C      0.500800000000     0.618320000000     0.030930000000     0.0779975  
C60      C      0.497990000000     0.653680000000     0.968410000000    -0.097289   
C61      C      0.476330000000     0.729220000000     0.976220000000    -0.0380617  
C62      C      0.475800000000     0.765500000000     0.975680000000    -0.0296102  
C63      C      0.498810000000     0.711310000000     0.998740000000    -0.00588178 
C64      C      0.500720000000     0.654610000000     0.030870000000    -0.0969459  
C65      C      0.497850000000     0.784710000000     0.997540000000    -0.0202628  
C66      C      0.527780000000     0.842570000000     0.998040000000    -0.11682    
C67      C      0.520470000000     0.766810000000     0.019950000000    -0.0301201  
C68      C      0.526480000000     0.878800000000     0.997670000000     0.0870545  
C69      C      0.464820000000     0.877480000000     0.996020000000     0.246836   
C70      C      0.520860000000     0.730510000000     0.020610000000    -0.0384294  
C71      C      0.499230000000     0.672740000000     0.999360000000     0.0510476  
C72      C      0.497050000000     0.823280000000     0.997150000000     0.0829135  
C73      C      0.467120000000     0.155560000000     0.002110000000    -0.168962   
C74      C      0.501030000000     0.378670000000     0.033140000000     0.076698   
C75      C      0.501700000000     0.378420000000     0.971560000000     0.0772163  
C76      C      0.501110000000     0.342380000000     0.033740000000    -0.0971056  
C77      C      0.522890000000     0.266380000000     0.979700000000    -0.0383541  
C78      C      0.522300000000     0.230080000000     0.979350000000    -0.0294298  
C79      C      0.501440000000     0.285090000000     0.002590000000    -0.00590831 
C80      C      0.502000000000     0.342150000000     0.971230000000    -0.0971532  
C81      C      0.500080000000     0.211680000000     0.001730000000    -0.0203681  
C82      C      0.529380000000     0.153570000000     0.998740000000    -0.116591   
C83      C      0.478740000000     0.230390000000     0.024730000000    -0.0294939  
C84      C      0.527720000000     0.117360000000     0.998020000000     0.0869676  
C85      C      0.466130000000     0.119210000000     0.001340000000     0.24667    
C86      C      0.479490000000     0.266680000000     0.025220000000    -0.038354   
C87      C      0.501620000000     0.323670000000     0.002540000000     0.0505364  
C88      C      0.498880000000     0.173130000000     0.000870000000     0.0828864  
C89      C      0.502010000000     0.033670000000     0.654110000000    -0.168882   
C90      C      0.466320000000     0.998920000000     0.877170000000     0.0790825  
C91      C      0.527880000000     0.000000000000     0.877900000000     0.0781347  
C92      C      0.466280000000     0.999160000000     0.840880000000    -0.0962561  
C93      C      0.475810000000     0.979040000000     0.764890000000    -0.0382026  
C94      C      0.476430000000     0.979460000000     0.728570000000    -0.0292053  
C95      C      0.498280000000     0.000500000000     0.784080000000    -0.00558883 
C96      C      0.528780000000     0.000430000000     0.841640000000    -0.0970934  
C97      C      0.499380000000     0.001500000000     0.710660000000    -0.0202449  
C98      C      0.498280000000     0.971410000000     0.652890000000    -0.116636   
C99      C      0.521790000000     0.023010000000     0.729860000000    -0.0293392  
C100     C      0.498810000000     0.972550000000     0.616650000000     0.0870737  
C101     C      0.502500000000     0.034140000000     0.617740000000     0.246656   
C102     C      0.521310000000     0.022450000000     0.766150000000    -0.038226   
C103     C      0.497760000000     0.999990000000     0.822660000000     0.0513107  
C104     C      0.499870000000     0.002190000000     0.672070000000     0.0830285  
C105     C      0.495140000000     0.030920000000     0.339710000000    -0.169359   
C106     C      0.525940000000     0.995870000000     0.116990000000     0.0768631  
C107     C      0.464380000000     0.997450000000     0.116720000000     0.0765695  
C108     C      0.526250000000     0.995480000000     0.153260000000    -0.0973427  
C109     C      0.517560000000     0.974840000000     0.229050000000    -0.0385341  
C110     C      0.517860000000     0.975460000000     0.265350000000    -0.0295518  
C111     C      0.494840000000     0.996440000000     0.210300000000    -0.00583618 
C112     C      0.463760000000     0.997240000000     0.153000000000    -0.0972679  
C113     C      0.495590000000     0.997840000000     0.283690000000    -0.0203922  
C114     C      0.498570000000     0.968670000000     0.341880000000    -0.116872   
C115     C      0.472740000000     0.019280000000     0.264940000000    -0.0294933  
C116     C      0.499240000000     0.970440000000     0.378090000000     0.0871867  
C117     C      0.495820000000     0.032020000000     0.376050000000     0.246829   
C118     C      0.472320000000     0.018540000000     0.228660000000    -0.038487   
C119     C      0.494930000000     0.996260000000     0.171720000000     0.050515   
C120     C      0.496430000000     0.999120000000     0.322240000000     0.0831742  
C121     C      0.034660000000     0.502620000000     0.660120000000    -0.16913    
C122     C      0.001260000000     0.529890000000     0.883660000000     0.0778407  
C123     C      0.999850000000     0.468320000000     0.882910000000     0.0781433  
C124     C      0.001490000000     0.530800000000     0.847400000000    -0.0972347  
C125     C      0.023380000000     0.523020000000     0.771880000000    -0.0382279  
C126     C      0.023950000000     0.523380000000     0.735600000000    -0.0295491  
C127     C      0.001150000000     0.500310000000     0.789860000000    -0.00587588 
C128     C      0.999850000000     0.468310000000     0.846620000000    -0.0967264  
C129     C      0.002170000000     0.501170000000     0.716470000000    -0.0204328  
C130     C      0.972350000000     0.500200000000     0.658590000000    -0.116886   
C131     C      0.979790000000     0.478600000000     0.734440000000    -0.029872   
C132     C      0.973700000000     0.500450000000     0.622360000000     0.0871575  
C133     C      0.035350000000     0.502440000000     0.623760000000     0.24681    
C134     C      0.979370000000     0.478090000000     0.770750000000    -0.0384009  
C135     C      0.000770000000     0.499790000000     0.828430000000     0.0510004  
C136     C      0.003040000000     0.501370000000     0.677910000000     0.0830086  
C137     C      0.033440000000     0.498220000000     0.345610000000    -0.168926   
C138     C      0.000520000000     0.466300000000     0.122480000000     0.0768222  
C139     C      0.998260000000     0.527840000000     0.122760000000     0.0770994  
C140     C      0.000460000000     0.465670000000     0.158770000000    -0.0972318  
C141     C      0.021840000000     0.474720000000     0.234480000000    -0.0382155  
C142     C      0.022530000000     0.475180000000     0.270780000000    -0.029648   
C143     C      0.999280000000     0.496740000000     0.216080000000    -0.00596843 
C144     C      0.997940000000     0.528140000000     0.159030000000    -0.0972634  
C145     C      0.000510000000     0.497510000000     0.289490000000    -0.0203454  
C146     C      0.971110000000     0.499620000000     0.347590000000    -0.116569   
C147     C      0.977670000000     0.519270000000     0.271090000000    -0.030055   
C148     C      0.972740000000     0.500380000000     0.383810000000     0.0868115  
C149     C      0.034410000000     0.499410000000     0.381950000000     0.246641   
C150     C      0.977150000000     0.518970000000     0.234790000000    -0.0385222  
C151     C      0.999130000000     0.496830000000     0.177490000000     0.0506379  
C152     C      0.001670000000     0.498390000000     0.328040000000     0.0827278  
C153     C      0.156890000000     0.000180000000     0.530920000000    -0.168991   
C154     C      0.379970000000     0.033020000000     0.496750000000     0.0778581  
C155     C      0.380320000000     0.971460000000     0.498780000000     0.0776694  
C156     C      0.343680000000     0.033260000000     0.496600000000    -0.0968244  
C157     C      0.267820000000     0.023730000000     0.475870000000    -0.0380182  
C158     C      0.231510000000     0.023400000000     0.476110000000    -0.0297718  
C159     C      0.286720000000     0.001600000000     0.497930000000    -0.0058373  
C160     C      0.344060000000     0.970780000000     0.498860000000    -0.09714    
C161     C      0.213320000000     0.001100000000     0.498590000000    -0.019962   
C162     C      0.155510000000     0.002180000000     0.468580000000    -0.11583    
C163     C      0.232230000000     0.978970000000     0.520630000000    -0.0293118  
C164     C      0.119270000000     0.002040000000     0.469850000000     0.0888319  
C165     C      0.120540000000     0.000470000000     0.531530000000     0.247766   
C166     C      0.268510000000     0.979160000000     0.520250000000    -0.0377997  
C167     C      0.325290000000     0.001900000000     0.497740000000     0.0510981  
C168     C      0.174760000000     0.001130000000     0.499330000000     0.0835576  
C169     C      0.842530000000     0.001270000000     0.529740000000    -0.169133   
C170     C      0.619540000000     0.033310000000     0.494600000000     0.0776018  
C171     C      0.619370000000     0.971770000000     0.496870000000     0.0774229  
C172     C      0.655830000000     0.033660000000     0.494310000000    -0.0967971  
C173     C      0.731840000000     0.024380000000     0.473910000000    -0.0385242  
C174     C      0.768160000000     0.024220000000     0.474390000000    -0.0299856  
C175     C      0.712910000000     0.002180000000     0.495880000000    -0.00598685 
C176     C      0.655630000000     0.971190000000     0.496790000000    -0.0972016  
C177     C      0.786320000000     0.002030000000     0.497010000000    -0.0204787  
C178     C      0.844370000000     0.003390000000     0.467430000000    -0.116636   
C179     C      0.767360000000     0.979820000000     0.518930000000    -0.0297051  
C180     C      0.880610000000     0.003240000000     0.468960000000     0.0861298  
C181     C      0.878880000000     0.001540000000     0.530620000000     0.246204   
C182     C      0.731090000000     0.979840000000     0.518320000000    -0.0382668  
C183     C      0.674320000000     0.002360000000     0.495540000000     0.0506896  
C184     C      0.824890000000     0.002240000000     0.498030000000     0.0825699  
C185     C      0.998170000000     0.844420000000     0.469330000000    -0.168797   
C186     C      0.033950000000     0.621340000000     0.503010000000     0.0779256  
C187     C      0.972390000000     0.620560000000     0.501870000000     0.0775521  
C188     C      0.033950000000     0.657630000000     0.503050000000    -0.096669   
C189     C      0.024300000000     0.733520000000     0.523630000000    -0.038115   
C190     C      0.023650000000     0.769830000000     0.523380000000    -0.0291444  
C191     C      0.001890000000     0.714410000000     0.502040000000    -0.00564654 
C192     C      0.971460000000     0.656820000000     0.501710000000    -0.0971174  
C193     C      0.000730000000     0.787830000000     0.501380000000    -0.0200518  
C194     C      0.001790000000     0.845550000000     0.531590000000    -0.115835   
C195     C      0.978340000000     0.768710000000     0.479780000000    -0.0292714  
C196     C      0.001220000000     0.881800000000     0.530500000000     0.0888411  
C197     C      0.997630000000     0.880780000000     0.468910000000     0.24763    
C198     C      0.978860000000     0.732420000000     0.480160000000    -0.0382771  
C199     C      0.002450000000     0.675820000000     0.502320000000     0.0508978  
C200     C      0.000260000000     0.826410000000     0.500790000000     0.0835404  
C201     C      0.003490000000     0.158740000000     0.471890000000    -0.169275   
C202     C      0.035960000000     0.381740000000     0.503590000000     0.0779129  
C203     C      0.974410000000     0.381500000000     0.505520000000     0.0775296  
C204     C      0.036570000000     0.345460000000     0.504090000000    -0.0967635  
C205     C      0.027610000000     0.269580000000     0.483410000000    -0.0381454  
C206     C      0.027020000000     0.233290000000     0.482930000000    -0.0295615  
C207     C      0.005460000000     0.288190000000     0.505680000000    -0.0059323  
C208     C      0.974100000000     0.345240000000     0.506250000000    -0.0971598  
C209     C      0.004410000000     0.214800000000     0.504850000000    -0.0203962  
C210     C      0.001560000000     0.156690000000     0.534210000000    -0.116766   
C211     C      0.982580000000     0.233390000000     0.527450000000    -0.0300195  
C212     C      0.000560000000     0.120470000000     0.532510000000     0.0862957  
C213     C      0.002070000000     0.122430000000     0.470850000000     0.246447   
C214     C      0.983030000000     0.269690000000     0.527780000000    -0.038418   
C215     C      0.005400000000     0.326760000000     0.505460000000     0.0508531  
C216     C      0.003210000000     0.176260000000     0.503690000000     0.0827603  
H1       H      0.605960000000     0.497410000000     0.944280000000     0.0219797  
H2       H      0.894450000000     0.553100000000     0.003340000000     0.0198407  
H3       H      0.718300000000     0.460610000000     0.959350000000     0.0377825  
H4       H      0.781780000000     0.539680000000     0.038930000000     0.0345686  
H5       H      0.831790000000     0.554880000000     0.001700000000     0.0568666  
H6       H      0.718390000000     0.540510000000     0.038150000000     0.0372706  
H7       H      0.829000000000     0.443140000000     0.999070000000     0.0806373  
H8       H      0.668960000000     0.498350000000     0.943140000000     0.0523303  
H9       H      0.670160000000     0.502010000000     0.055110000000     0.0522966  
H10      H      0.781710000000     0.460410000000     0.959510000000     0.0372094  
H11      H      0.607280000000     0.501360000000     0.055430000000     0.0223611  
H12      H      0.897430000000     0.428140000000     0.025460000000     0.14929    
H13      H      0.106620000000     0.442660000000     0.003930000000     0.0225188  
H14      H      0.393710000000     0.500230000000     0.947840000000     0.0199915  
H15      H      0.218190000000     0.457950000000     0.041780000000     0.0378607  
H16      H      0.281950000000     0.538450000000     0.963890000000     0.0355308  
H17      H      0.330980000000     0.500330000000     0.947060000000     0.0571168  
H18      H      0.218500000000     0.538430000000     0.963580000000     0.0377712  
H19      H      0.329920000000     0.495210000000     0.058750000000     0.0812213  
H20      H      0.169520000000     0.442280000000     0.003450000000     0.052567   
H21      H      0.169520000000     0.554300000000     0.001960000000     0.0527032  
H22      H      0.281550000000     0.457350000000     0.041440000000     0.0353898  
H23      H      0.106520000000     0.553880000000     0.002110000000     0.022159   
H24      H      0.399240000000     0.468730000000     0.070570000000     0.148623   
H25      H      0.501820000000     0.605350000000     0.055910000000     0.0236924  
H26      H      0.551110000000     0.892450000000     0.998240000000     0.0198413  
H27      H      0.538700000000     0.717460000000     0.038030000000     0.0373609  
H28      H      0.458310000000     0.778530000000     0.957900000000     0.0373981  
H29      H      0.552830000000     0.829760000000     0.998570000000     0.0569646  
H30      H      0.458800000000     0.715170000000     0.959270000000     0.038138   
H31      H      0.441100000000     0.827010000000     0.995680000000     0.0810449  
H32      H      0.501330000000     0.668350000000     0.055410000000     0.0529429  
H33      H      0.497230000000     0.666680000000     0.943460000000     0.0525019  
H34      H      0.537550000000     0.780890000000     0.037320000000     0.0346569  
H35      H      0.497390000000     0.603790000000     0.944780000000     0.0221638  
H36      H      0.426000000000     0.896190000000     0.019730000000     0.149689   
H37      H      0.501840000000     0.391610000000     0.946670000000     0.0221365  
H38      H      0.552170000000     0.103480000000     0.996400000000     0.0199422  
H39      H      0.462440000000     0.280350000000     0.042950000000     0.0376362  
H40      H      0.538850000000     0.216410000000     0.961160000000     0.0354299  
H41      H      0.554540000000     0.166150000000     0.998060000000     0.0569912  
H42      H      0.540330000000     0.279820000000     0.962180000000     0.0376446  
H43      H      0.442930000000     0.169900000000     0.003360000000     0.0813005  
H44      H      0.501980000000     0.328700000000     0.946510000000     0.0525968  
H45      H      0.501160000000     0.329080000000     0.058540000000     0.0522738  
H46      H      0.461590000000     0.216950000000     0.042530000000     0.0353446  
H47      H      0.500710000000     0.392090000000     0.057900000000     0.0222116  
H48      H      0.429320000000     0.100190000000     0.027830000000     0.148848   
H49      H      0.552550000000     0.000250000000     0.891490000000     0.0222283  
H50      H      0.497480000000     0.947900000000     0.603090000000     0.019939   
H51      H      0.538720000000     0.039530000000     0.780180000000     0.0379518  
H52      H      0.458630000000     0.962810000000     0.714520000000     0.0357827  
H53      H      0.497020000000     0.946430000000     0.665780000000     0.0570863  
H54      H      0.457990000000     0.961620000000     0.777940000000     0.0384985  
H55      H      0.502950000000     0.058070000000     0.668130000000     0.0814005  
H56      H      0.553700000000     0.000660000000     0.828580000000     0.0524506  
H57      H      0.441690000000     0.999180000000     0.827210000000     0.0540984  
H58      H      0.540000000000     0.040040000000     0.716820000000     0.0353834  
H59      H      0.441350000000     0.998420000000     0.890200000000     0.0259574  
H60      H      0.529950000000     0.070420000000     0.599040000000     0.148999   
H61      H      0.439630000000     0.998160000000     0.103290000000     0.0223202  
H62      H      0.500860000000     0.946020000000     0.392040000000     0.0198973  
H63      H      0.454730000000     0.035710000000     0.214970000000     0.0376366  
H64      H      0.535950000000     0.958820000000     0.279040000000     0.0352245  
H65      H      0.499290000000     0.943470000000     0.329380000000     0.0569962  
H66      H      0.534990000000     0.957280000000     0.215650000000     0.037376   
H67      H      0.493910000000     0.055080000000     0.325310000000     0.0811967  
H68      H      0.438950000000     0.997490000000     0.166270000000     0.0523213  
H69      H      0.550950000000     0.995130000000     0.166720000000     0.0523612  
H70      H      0.455010000000     0.036540000000     0.278340000000     0.0353063  
H71      H      0.550820000000     0.995430000000     0.103800000000     0.021919   
H72      H      0.469280000000     0.068890000000     0.394890000000     0.149165   
H73      H      0.999290000000     0.443350000000     0.895930000000     0.0240758  
H74      H      0.949090000000     0.499700000000     0.608670000000     0.0198538  
H75      H      0.961740000000     0.460520000000     0.783860000000     0.0380264  
H76      H      0.041250000000     0.541290000000     0.722500000000     0.0373967  
H77      H      0.947290000000     0.499570000000     0.671360000000     0.0571529  
H78      H      0.040680000000     0.540240000000     0.785870000000     0.0380264  
H79      H      0.058990000000     0.503130000000     0.674280000000     0.0809218  
H80      H      0.999650000000     0.443720000000     0.832940000000     0.0530258  
H81      H      0.001810000000     0.555720000000     0.834340000000     0.0526528  
H82      H      0.962930000000     0.460970000000     0.720430000000     0.0348615  
H83      H      0.001740000000     0.554550000000     0.897260000000     0.0222505  
H84      H      0.074320000000     0.478870000000     0.605190000000     0.149763   
H85      H      0.997480000000     0.552720000000     0.109580000000     0.0220172  
H86      H      0.948240000000     0.501070000000     0.397680000000     0.0198574  
H87      H      0.959240000000     0.536010000000     0.221350000000     0.0372389  
H88      H      0.040170000000     0.457870000000     0.284220000000     0.03749    
H89      H      0.945940000000     0.499500000000     0.335010000000     0.0569018  
H90      H      0.039410000000     0.457510000000     0.220810000000     0.0381108  
H91      H      0.057660000000     0.497760000000     0.331270000000     0.0809915  
H92      H      0.997310000000     0.552840000000     0.172510000000     0.0523303  
H93      H      0.001050000000     0.440870000000     0.172050000000     0.052477   
H94      H      0.960590000000     0.536960000000     0.284760000000     0.0346516  
H95      H      0.001470000000     0.441560000000     0.109050000000     0.0222185  
H96      H      0.073050000000     0.524190000000     0.399600000000     0.149803   
H97      H      0.393760000000     0.946720000000     0.499550000000     0.022267   
H98      H      0.105620000000     0.002660000000     0.445220000000     0.0238393  
H99      H      0.282320000000     0.962020000000     0.537770000000     0.0384316  
H100     H      0.217670000000     0.040960000000     0.459030000000     0.0357544  
H101     H      0.168340000000     0.002590000000     0.443540000000     0.0585949  
H102     H      0.281110000000     0.041090000000     0.458150000000     0.0378107  
H103     H      0.170990000000     0.999810000000     0.555280000000     0.0814299  
H104     H      0.330850000000     0.945940000000     0.499360000000     0.0527651  
H105     H      0.330150000000     0.057920000000     0.496100000000     0.0533177  
H106     H      0.218960000000     0.961270000000     0.538020000000     0.0378607  
H107     H      0.393150000000     0.057900000000     0.495980000000     0.0240311  
H108     H      0.101960000000     0.024390000000     0.570280000000     0.15024    
H109     H      0.606010000000     0.946990000000     0.497800000000     0.0220502  
H110     H      0.894430000000     0.003890000000     0.444430000000     0.0202403  
H111     H      0.717250000000     0.962650000000     0.535790000000     0.0377282  
H112     H      0.782030000000     0.041840000000     0.457380000000     0.0347833  
H113     H      0.831720000000     0.003840000000     0.442290000000     0.0569898  
H114     H      0.718580000000     0.041670000000     0.456110000000     0.0379981  
H115     H      0.828260000000     0.000860000000     0.554010000000     0.0806356  
H116     H      0.668910000000     0.946390000000     0.497350000000     0.0523615  
H117     H      0.669290000000     0.058360000000     0.493690000000     0.0528502  
H118     H      0.780600000000     0.962190000000     0.536410000000     0.037194   
H119     H      0.606290000000     0.058150000000     0.493830000000     0.0240628  
H120     H      0.897220000000     0.025440000000     0.569490000000     0.149204   
H121     H      0.947740000000     0.606950000000     0.501490000000     0.0220521  
H122     H      0.002480000000     0.895340000000     0.555170000000     0.0238689  
H123     H      0.961480000000     0.718460000000     0.462990000000     0.0375926  
H124     H      0.041430000000     0.783830000000     0.540110000000     0.0364561  
H125     H      0.003030000000     0.832630000000     0.556550000000     0.0585595  
H126     H      0.042120000000     0.720390000000     0.541000000000     0.0386345  
H127     H      0.997290000000     0.830440000000     0.444910000000     0.0814314  
H128     H      0.946520000000     0.669850000000     0.501550000000     0.0523619  
H129     H      0.058520000000     0.671330000000     0.503150000000     0.0534188  
H130     H      0.960140000000     0.781810000000     0.462780000000     0.0354595  
H131     H      0.058930000000     0.608330000000     0.503440000000     0.0242953  
H132     H      0.970220000000     0.899460000000     0.432590000000     0.149223   
H133     H      0.949540000000     0.394700000000     0.506010000000     0.0220355  
H134     H      0.999580000000     0.106560000000     0.556980000000     0.0202106  
H135     H      0.965890000000     0.283300000000     0.545480000000     0.0372939  
H136     H      0.044390000000     0.219690000000     0.465480000000     0.0375709  
H137     H      0.001560000000     0.169240000000     0.559390000000     0.0571343  
H138     H      0.044980000000     0.283080000000     0.465880000000     0.0386766  
H139     H      0.004220000000     0.173110000000     0.447690000000     0.080912   
H140     H      0.949390000000     0.331790000000     0.506880000000     0.0523107  
H141     H      0.061370000000     0.332160000000     0.503780000000     0.0531957  
H142     H      0.964690000000     0.219880000000     0.544460000000     0.0346406  
H143     H      0.060710000000     0.395150000000     0.502630000000     0.0242223  
H144     H      0.977420000000     0.105010000000     0.432020000000     0.149182   
N1       N      0.898360000000     0.497350000000     0.002020000000    -0.235033   
N2       N      0.601890000000     0.499320000000     0.999900000000    -0.208182   
N3       N      0.398460000000     0.497440000000     0.003470000000    -0.235023   
N4       N      0.101830000000     0.498280000000     0.003060000000    -0.208284   
N5       N      0.495370000000     0.896370000000     0.996700000000    -0.235019   
N6       N      0.499610000000     0.599840000000     0.000420000000    -0.208123   
N7       N      0.496450000000     0.100060000000     0.999170000000    -0.234845   
N8       N      0.501220000000     0.396590000000     0.002270000000    -0.208305   
N9       N      0.500680000000     0.003560000000     0.598960000000    -0.234921   
N10      N      0.496890000000     0.999310000000     0.895580000000    -0.207668   
N11      N      0.497990000000     0.001750000000     0.395290000000    -0.235136   
N12      N      0.495240000000     0.996890000000     0.098820000000    -0.208515   
N13      N      0.004830000000     0.501550000000     0.604830000000    -0.23511    
N14      N      0.000540000000     0.498890000000     0.901320000000    -0.208022   
N15      N      0.004030000000     0.500210000000     0.401110000000    -0.234884   
N16      N      0.999530000000     0.497160000000     0.104570000000    -0.208397   
N17      N      0.101670000000     0.001170000000     0.500960000000    -0.234355   
N18      N      0.398180000000     0.002350000000     0.497790000000    -0.208105   
N19      N      0.897970000000     0.002230000000     0.500190000000    -0.23494    
N20      N      0.601410000000     0.002600000000     0.495920000000    -0.20812    
N21      N      0.999360000000     0.899520000000     0.499510000000    -0.234163   
N22      N      0.003400000000     0.602900000000     0.502450000000    -0.208082   
N23      N      0.000930000000     0.103230000000     0.501200000000    -0.235139   
N24      N      0.005110000000     0.399660000000     0.504220000000    -0.208182   
O1       O      0.049300000000     0.001270000000     0.471790000000    -0.553663   
O2       O      0.950570000000     0.002110000000     0.471410000000    -0.558776   
O3       O      0.000420000000     0.050870000000     0.471940000000    -0.547039   
O4       O      0.999490000000     0.952370000000     0.471100000000    -0.544801   
O5       O      0.999560000000     0.951770000000     0.528900000000    -0.553478   
O6       O      0.999940000000     0.050500000000     0.529730000000    -0.559243   
O7       O      0.950470000000     0.001330000000     0.529210000000    -0.546854   
O8       O      0.048960000000     0.000920000000     0.529580000000    -0.546217   
O9       O      0.975830000000     0.451750000000     0.503540000000    -0.557829   
O10      O      0.975010000000     0.550310000000     0.502720000000    -0.557893   
O11      O      0.975330000000     0.500660000000     0.453740000000    -0.558715   
O12      O      0.975720000000     0.501340000000     0.552440000000    -0.558893   
O13      O      0.033520000000     0.501910000000     0.552130000000    -0.546272   
O14      O      0.033130000000     0.501060000000     0.453590000000    -0.54607    
O15      O      0.032920000000     0.550860000000     0.502510000000    -0.554355   
O16      O      0.033740000000     0.452170000000     0.503270000000    -0.554602   
O17      O      0.549100000000     0.973710000000     0.496940000000    -0.558037   
O18      O      0.450560000000     0.973580000000     0.497830000000    -0.557895   
O19      O      0.499360000000     0.973300000000     0.448020000000    -0.55866    
O20      O      0.500230000000     0.974190000000     0.546720000000    -0.558706   
O21      O      0.500430000000     0.032000000000     0.546110000000    -0.545315   
O22      O      0.499030000000     0.031110000000     0.447590000000    -0.546154   
O23      O      0.450420000000     0.031500000000     0.497430000000    -0.554651   
O24      O      0.549100000000     0.031620000000     0.496140000000    -0.554519   
O25      O      0.524520000000     0.997450000000     0.046720000000    -0.558347   
O26      O      0.525320000000     0.998660000000     0.948160000000    -0.5571     
O27      O      0.525080000000     0.047420000000     0.998040000000    -0.558687   
O28      O      0.524550000000     0.948720000000     0.996930000000    -0.558956   
O29      O      0.466750000000     0.949110000000     0.996380000000    -0.546387   
O30      O      0.467270000000     0.047650000000     0.997690000000    -0.545428   
O31      O      0.467410000000     0.998970000000     0.947640000000    -0.551952   
O32      O      0.466610000000     0.997760000000     0.046310000000    -0.557689   
O33      O      0.000140000000     0.468530000000     0.052040000000    -0.556933   
O34      O      0.000540000000     0.469370000000     0.953350000000    -0.554163   
O35      O      0.049630000000     0.469170000000     0.002920000000    -0.558098   
O36      O      0.951090000000     0.468700000000     0.002410000000    -0.545897   
O37      O      0.950710000000     0.526510000000     0.002910000000    -0.558938   
O38      O      0.049400000000     0.527100000000     0.003390000000    -0.556202   
O39      O      0.000320000000     0.527300000000     0.953900000000    -0.557375   
O40      O      0.999730000000     0.526450000000     0.052470000000    -0.557958   
O41      O      0.450410000000     0.497590000000     0.973560000000    -0.558343   
O42      O      0.549110000000     0.498360000000     0.971710000000    -0.556188   
O43      O      0.500220000000     0.448680000000     0.972990000000    -0.55807    
O44      O      0.499340000000     0.547220000000     0.972100000000    -0.5577     
O45      O      0.500420000000     0.547840000000     0.030010000000    -0.554319   
O46      O      0.501230000000     0.449130000000     0.030910000000    -0.556661   
O47      O      0.550060000000     0.498960000000     0.029630000000    -0.558447   
O48      O      0.451560000000     0.498030000000     0.031360000000    -0.545607   
O49      O      0.895390000000     0.434880000000     0.000670000000    -0.297312   
O50      O      0.396450000000     0.493920000000     0.065880000000    -0.296662   
O51      O      0.432920000000     0.893420000000     0.995060000000    -0.296712   
O52      O      0.434110000000     0.103550000000     0.002730000000    -0.29622    
O53      O      0.504710000000     0.065910000000     0.601660000000    -0.29621    
O54      O      0.494380000000     0.064090000000     0.391610000000    -0.296659   
O55      O      0.067270000000     0.503520000000     0.607870000000    -0.296824   
O56      O      0.066470000000     0.499350000000     0.397600000000    -0.29677    
O57      O      0.104590000000     0.999690000000     0.563430000000    -0.296606   
O58      O      0.894590000000     0.000740000000     0.562640000000    -0.296927   
O59      O      0.995460000000     0.896880000000     0.437150000000    -0.296067   
O60      O      0.002230000000     0.106850000000     0.438760000000    -0.296822   
V1       V      0.999950000000     0.001660000000     0.469280000000     1.4037     
V2       V      0.999710000000     0.001110000000     0.531640000000     1.40382    
V3       V      0.973180000000     0.501010000000     0.503110000000     1.39461    
V4       V      0.035610000000     0.501530000000     0.502850000000     1.40561    
V5       V      0.499830000000     0.971400000000     0.497400000000     1.39465    
V6       V      0.499750000000     0.033840000000     0.496810000000     1.40627    
V7       V      0.527160000000     0.998050000000     0.997460000000     1.39421    
V8       V      0.464730000000     0.998390000000     0.996960000000     1.40633    
V9       V      0.000370000000     0.466660000000     0.002670000000     1.40127    
V10      V      0.000030000000     0.529130000000     0.003200000000     1.39511    
V11      V      0.499720000000     0.497930000000     0.970300000000     1.39512    
V12      V      0.500850000000     0.498510000000     0.032760000000     1.40154    


