data_structure

_audit_creation_method RASPA-1.0
_audit_creation_date 2023-5-19
_audit_author_name 'Poobodin Mano'

_cell_length_a    38.4681
_cell_length_b    38.4682
_cell_length_c    38.4682
_cell_angle_alpha 90
_cell_angle_beta  89.9998
_cell_angle_gamma 90
_cell_volume      56925.2

_symmetry_cell_setting          triclinic
_symmetry_space_group_name_Hall 'P 1'
_symmetry_space_group_name_H-M  'P 1'
_symmetry_Int_Tables_number     1

_symmetry_equiv_pos_as_xyz 'x,y,z'

loop_
_atom_site_label
_atom_site_type_symbol
_atom_site_fract_x
_atom_site_fract_y
_atom_site_fract_z
_atom_site_charge
C1       C      0.022290000000     0.088380000000     0.522590000000     0.479229   
C2       C      0.022860000000     0.956360000000     0.522150000000     0.47923    
C3       C      0.956560000000     0.022080000000     0.522560000000     0.479183   
C4       C      0.088580000000     0.022670000000     0.522180000000     0.479268   
C5       C      0.022490000000     0.456360000000     0.522390000000     0.478924   
C6       C      0.022840000000     0.588390000000     0.522340000000     0.479118   
C7       C      0.022960000000     0.522410000000     0.456350000000     0.478994   
C8       C      0.022370000000     0.522350000000     0.588380000000     0.478925   
C9       C      0.522350000000     0.022630000000     0.588490000000     0.478926   
C10      C      0.522780000000     0.022230000000     0.456460000000     0.479108   
C11      C      0.588580000000     0.022190000000     0.522700000000     0.479087   
C12      C      0.456560000000     0.022670000000     0.522250000000     0.479089   
C13      C      0.522190000000     0.088440000000     0.022440000000     0.479229   
C14      C      0.522730000000     0.956410000000     0.022530000000     0.479059   
C15      C      0.522590000000     0.022410000000     0.088490000000     0.479237   
C16      C      0.522330000000     0.022430000000     0.956470000000     0.479435   
C17      C      0.022000000000     0.522360000000     0.956350000000     0.479168   
C18      C      0.022580000000     0.522770000000     0.088370000000     0.479294   
C19      C      0.956270000000     0.522500000000     0.022630000000     0.479235   
C20      C      0.088290000000     0.522620000000     0.022110000000     0.479195   
C21      C      0.522040000000     0.456410000000     0.022420000000     0.479096   
C22      C      0.522530000000     0.588430000000     0.022820000000     0.479071   
C23      C      0.588290000000     0.522210000000     0.022700000000     0.479065   
C24      C      0.456260000000     0.522640000000     0.022520000000     0.478869   
C25      C      0.642000000000     0.521280000000     0.053570000000     0.0768303  
C26      C      0.678300000000     0.521180000000     0.054070000000    -0.0978914  
C27      C      0.696940000000     0.522170000000     0.022820000000     0.0509372  
C28      C      0.678370000000     0.523120000000     0.991530000000    -0.0978564  
C29      C      0.642070000000     0.522990000000     0.991960000000     0.0770315  
C30      C      0.735540000000     0.522230000000     0.022860000000    -0.00856456 
C31      C      0.754140000000     0.500150000000     0.045260000000    -0.0360117  
C32      C      0.790470000000     0.500130000000     0.045200000000    -0.0360881  
C33      C      0.809010000000     0.522350000000     0.022890000000    -0.0085375  
C34      C      0.790420000000     0.544520000000     0.000580000000    -0.0361357  
C35      C      0.754090000000     0.544390000000     0.000480000000    -0.036165   
C36      C      0.847610000000     0.522400000000     0.022880000000     0.05099    
C37      C      0.866250000000     0.491160000000     0.024090000000    -0.0978873  
C38      C      0.902550000000     0.491660000000     0.023910000000     0.0768702  
C39      C      0.902490000000     0.553250000000     0.021680000000     0.0768506  
C40      C      0.866190000000     0.553670000000     0.021620000000    -0.0978303  
C41      C      0.402570000000     0.523870000000     0.991650000000     0.0770105  
C42      C      0.366270000000     0.524030000000     0.991120000000    -0.0978166  
C43      C      0.347610000000     0.522800000000     0.022350000000     0.0509307  
C44      C      0.366160000000     0.521560000000     0.053640000000    -0.097943   
C45      C      0.402470000000     0.521640000000     0.053230000000     0.0769188  
C46      C      0.309010000000     0.522790000000     0.022280000000    -0.00855535 
C47      C      0.290470000000     0.545090000000     0.000040000000    -0.0361855  
C48      C      0.254140000000     0.545130000000     0.000040000000    -0.0361452  
C49      C      0.235550000000     0.522730000000     0.022120000000    -0.00852621 
C50      C      0.254080000000     0.500360000000     0.044290000000    -0.0361062  
C51      C      0.290410000000     0.500470000000     0.044440000000    -0.036021   
C52      C      0.196940000000     0.522700000000     0.022050000000     0.0510152  
C53      C      0.178310000000     0.553950000000     0.021060000000    -0.097888   
C54      C      0.142010000000     0.553460000000     0.021170000000     0.0769192  
C55      C      0.142060000000     0.491860000000     0.022880000000     0.0768952  
C56      C      0.178360000000     0.491420000000     0.023000000000    -0.0979232  
C57      C      0.521760000000     0.642100000000     0.053760000000     0.0768817  
C58      C      0.521820000000     0.678410000000     0.054310000000    -0.0978453  
C59      C      0.523050000000     0.697080000000     0.023090000000     0.0509316  
C60      C      0.524100000000     0.678550000000     0.991790000000    -0.0978329  
C61      C      0.523800000000     0.642250000000     0.992170000000     0.0769751  
C62      C      0.523170000000     0.735690000000     0.023160000000    -0.00855965 
C63      C      0.500990000000     0.754290000000     0.045460000000    -0.036032   
C64      C      0.500930000000     0.790610000000     0.045350000000    -0.0360542  
C65      C      0.523200000000     0.809150000000     0.023080000000    -0.00852495 
C66      C      0.545500000000     0.790560000000     0.000900000000    -0.0361972  
C67      C      0.545410000000     0.754230000000     0.000870000000    -0.0361096  
C68      C      0.523100000000     0.847760000000     0.022940000000     0.0509993  
C69      C      0.491780000000     0.866270000000     0.024000000000    -0.0979006  
C70      C      0.492120000000     0.902570000000     0.023730000000     0.0768716  
C71      C      0.553720000000     0.902770000000     0.021660000000     0.0768519  
C72      C      0.554300000000     0.866460000000     0.021700000000    -0.0978324  
C73      C      0.522820000000     0.402610000000     0.053110000000     0.0768992  
C74      C      0.522850000000     0.366310000000     0.053520000000    -0.098024   
C75      C      0.521740000000     0.347760000000     0.022230000000     0.051041   
C76      C      0.520660000000     0.366410000000     0.990990000000    -0.0978226  
C77      C      0.520870000000     0.402720000000     0.991510000000     0.0769744  
C78      C      0.521760000000     0.309150000000     0.022200000000    -0.00882886 
C79      C      0.543990000000     0.290600000000     0.044490000000    -0.0358908  
C80      C      0.544080000000     0.254280000000     0.044440000000    -0.0361837  
C81      C      0.521790000000     0.235690000000     0.022240000000    -0.00841959 
C82      C      0.499480000000     0.254230000000     0.000020000000    -0.0364372  
C83      C      0.499540000000     0.290570000000     0.999920000000    -0.0356507  
C84      C      0.521870000000     0.197090000000     0.022240000000     0.050961   
C85      C      0.553180000000     0.178570000000     0.023340000000    -0.0979008  
C86      C      0.552810000000     0.142270000000     0.023290000000     0.0768521  
C87      C      0.491210000000     0.142090000000     0.021380000000     0.076873   
C88      C      0.490650000000     0.178400000000     0.021190000000    -0.097854   
C89      C      0.523160000000     0.053560000000     0.642170000000     0.0768244  
C90      C      0.523190000000     0.054100000000     0.678480000000    -0.0978224  
C91      C      0.522070000000     0.022870000000     0.697140000000     0.0508577  
C92      C      0.521040000000     0.991570000000     0.678590000000    -0.09776    
C93      C      0.521240000000     0.991960000000     0.642290000000     0.0769824  
C94      C      0.522010000000     0.022920000000     0.735750000000    -0.00849294 
C95      C      0.544170000000     0.045250000000     0.754320000000    -0.0360688  
C96      C      0.544270000000     0.045140000000     0.790660000000    -0.0360568  
C97      C      0.522050000000     0.022840000000     0.809210000000    -0.0085544  
C98      C      0.499790000000     0.000600000000     0.790630000000    -0.0361584  
C99      C      0.499840000000     0.000570000000     0.754300000000    -0.036188   
C100     C      0.522120000000     0.022740000000     0.847820000000     0.0510438  
C101     C      0.490900000000     0.021450000000     0.866480000000    -0.0978918  
C102     C      0.491430000000     0.021450000000     0.902780000000     0.0768881  
C103     C      0.553020000000     0.023660000000     0.902670000000     0.0769366  
C104     C      0.553410000000     0.023890000000     0.866370000000    -0.0979466  
C105     C      0.521870000000     0.991310000000     0.402780000000     0.0769893  
C106     C      0.521800000000     0.990780000000     0.366470000000    -0.0977501  
C107     C      0.522960000000     0.022010000000     0.347810000000     0.0509221  
C108     C      0.524080000000     0.053300000000     0.366360000000    -0.0978669  
C109     C      0.523910000000     0.052910000000     0.402660000000     0.0767933  
C110     C      0.522990000000     0.021960000000     0.309210000000    -0.00865223 
C111     C      0.500720000000     0.999720000000     0.290650000000    -0.0359515  
C112     C      0.500600000000     0.999840000000     0.254320000000    -0.0358251  
C113     C      0.522900000000     0.022040000000     0.235750000000    -0.0087732  
C114     C      0.545270000000     0.044180000000     0.254310000000    -0.035951   
C115     C      0.545240000000     0.044220000000     0.290640000000    -0.0360941  
C116     C      0.522820000000     0.022130000000     0.197140000000     0.0511545  
C117     C      0.491510000000     0.021170000000     0.178610000000    -0.0980036  
C118     C      0.491900000000     0.021390000000     0.142300000000     0.0769138  
C119     C      0.553500000000     0.023200000000     0.142170000000     0.076891   
C120     C      0.554040000000     0.023210000000     0.178480000000    -0.097974   
C121     C      0.020830000000     0.491450000000     0.902660000000     0.0768632  
C122     C      0.020640000000     0.490930000000     0.866350000000    -0.0978871  
C123     C      0.021750000000     0.522160000000     0.847700000000     0.051112   
C124     C      0.022870000000     0.553450000000     0.866250000000    -0.0979938  
C125     C      0.022810000000     0.553050000000     0.902550000000     0.0769011  
C126     C      0.021800000000     0.522130000000     0.809090000000    -0.00874387 
C127     C      0.044060000000     0.544400000000     0.790560000000    -0.0359839  
C128     C      0.044190000000     0.544340000000     0.754240000000    -0.0360565  
C129     C      0.021900000000     0.522150000000     0.735630000000    -0.00868958 
C130     C      0.999560000000     0.499950000000     0.754160000000    -0.0359114  
C131     C      0.999590000000     0.499860000000     0.790490000000    -0.0358686  
C132     C      0.022000000000     0.522160000000     0.697030000000     0.0509281  
C133     C      0.053320000000     0.523240000000     0.678520000000    -0.0979367  
C134     C      0.052970000000     0.523190000000     0.642230000000     0.0768955  
C135     C      0.991370000000     0.521310000000     0.642020000000     0.0769793  
C136     C      0.990790000000     0.521120000000     0.678320000000    -0.0977484  
C137     C      0.021900000000     0.553710000000     0.142050000000     0.076927   
C138     C      0.022000000000     0.554260000000     0.178350000000    -0.0979397  
C139     C      0.023230000000     0.523040000000     0.197020000000     0.0510847  
C140     C      0.024240000000     0.491740000000     0.178490000000    -0.0980258  
C141     C      0.023900000000     0.492120000000     0.142190000000     0.0769205  
C142     C      0.023380000000     0.523110000000     0.235630000000    -0.00856215 
C143     C      0.045620000000     0.500800000000     0.254150000000    -0.0360418  
C144     C      0.045730000000     0.500820000000     0.290480000000    -0.0360758  
C145     C      0.023440000000     0.523010000000     0.309100000000    -0.00854885 
C146     C      0.001180000000     0.545300000000     0.290570000000    -0.036153   
C147     C      0.001220000000     0.545420000000     0.254240000000    -0.0361834  
C148     C      0.023340000000     0.522840000000     0.347700000000     0.050906   
C149     C      0.054540000000     0.521570000000     0.366400000000    -0.097789   
C150     C      0.053960000000     0.521520000000     0.402710000000     0.0768206  
C151     C      0.992370000000     0.523630000000     0.402510000000     0.0770432  
C152     C      0.992020000000     0.523910000000     0.366210000000    -0.0978672  
C153     C      0.402730000000     0.992020000000     0.523050000000     0.0769572  
C154     C      0.366440000000     0.991640000000     0.523080000000    -0.0978469  
C155     C      0.347910000000     0.022940000000     0.521960000000     0.050924   
C156     C      0.366580000000     0.054170000000     0.520880000000    -0.0978806  
C157     C      0.402890000000     0.053620000000     0.521080000000     0.0768712  
C158     C      0.309300000000     0.023010000000     0.521960000000    -0.00854904 
C159     C      0.290720000000     0.000720000000     0.544180000000    -0.0361506  
C160     C      0.254400000000     0.000800000000     0.544250000000    -0.036172   
C161     C      0.235840000000     0.023030000000     0.521960000000    -0.00856707 
C162     C      0.254410000000     0.045240000000     0.499670000000    -0.0360201  
C163     C      0.290740000000     0.045310000000     0.499750000000    -0.036051   
C164     C      0.197230000000     0.023030000000     0.521990000000     0.0510549  
C165     C      0.178680000000     0.021890000000     0.553280000000    -0.0979526  
C166     C      0.142380000000     0.021910000000     0.552880000000     0.0768197  
C167     C      0.142270000000     0.023880000000     0.491280000000     0.0769368  
C168     C      0.178580000000     0.024110000000     0.490760000000    -0.0979024  
C169     C      0.902750000000     0.022860000000     0.491880000000     0.0768405  
C170     C      0.866450000000     0.022890000000     0.491490000000    -0.0979388  
C171     C      0.847910000000     0.021760000000     0.522780000000     0.0510863  
C172     C      0.866570000000     0.020660000000     0.554010000000    -0.0978578  
C173     C      0.902880000000     0.020870000000     0.553480000000     0.0768999  
C174     C      0.809300000000     0.021770000000     0.522830000000    -0.00872513 
C175     C      0.790730000000     0.044010000000     0.500560000000    -0.0360421  
C176     C      0.754410000000     0.044110000000     0.500660000000    -0.0360384  
C177     C      0.735840000000     0.021830000000     0.522880000000    -0.00867882 
C178     C      0.754400000000     0.999510000000     0.545080000000    -0.0359307  
C179     C      0.790730000000     0.999560000000     0.545130000000    -0.0358508  
C180     C      0.697230000000     0.021900000000     0.522920000000     0.0509612  
C181     C      0.678710000000     0.053210000000     0.521820000000    -0.0979752  
C182     C      0.642410000000     0.052840000000     0.521870000000     0.0768294  
C183     C      0.642240000000     0.991240000000     0.523830000000     0.077005   
C184     C      0.678550000000     0.990680000000     0.524000000000    -0.0977561  
C185     C      0.053780000000     0.642060000000     0.523110000000     0.0767888  
C186     C      0.054330000000     0.678360000000     0.523100000000    -0.0978017  
C187     C      0.023110000000     0.697040000000     0.521990000000     0.0508382  
C188     C      0.991800000000     0.678510000000     0.521030000000    -0.097697   
C189     C      0.992170000000     0.642210000000     0.521270000000     0.0769081  
C190     C      0.023210000000     0.735640000000     0.521880000000    -0.00846007 
C191     C      0.045560000000     0.754210000000     0.544040000000    -0.0361389  
C192     C      0.045510000000     0.790540000000     0.544070000000    -0.0359459  
C193     C      0.023270000000     0.809110000000     0.521810000000    -0.00865696 
C194     C      0.001020000000     0.790530000000     0.499550000000    -0.0360335  
C195     C      0.000910000000     0.754200000000     0.499660000000    -0.0362399  
C196     C      0.023210000000     0.847710000000     0.521870000000     0.0511136  
C197     C      0.024280000000     0.866240000000     0.553170000000    -0.0980032  
C198     C      0.024050000000     0.902540000000     0.552790000000     0.076931   
C199     C      0.022050000000     0.902690000000     0.491200000000     0.0769424  
C200     C      0.022030000000     0.866380000000     0.490650000000    -0.0979241  
C201     C      0.991560000000     0.402700000000     0.521410000000     0.0770157  
C202     C      0.990990000000     0.366400000000     0.521420000000    -0.09783    
C203     C      0.022200000000     0.347710000000     0.522720000000     0.0509506  
C204     C      0.053510000000     0.366230000000     0.523900000000    -0.0979398  
C205     C      0.053140000000     0.402540000000     0.523650000000     0.0769163  
C206     C      0.022090000000     0.309100000000     0.522830000000    -0.00868421 
C207     C      0.999830000000     0.290540000000     0.500580000000    -0.0359382  
C208     C      0.999850000000     0.254220000000     0.500550000000    -0.0358857  
C209     C      0.021990000000     0.235640000000     0.522910000000    -0.0087403  
C210     C      0.044150000000     0.254200000000     0.545260000000    -0.0359972  
C211     C      0.044280000000     0.290530000000     0.545140000000    -0.0360278  
C212     C      0.022020000000     0.197030000000     0.522860000000     0.05109    
C213     C      0.021000000000     0.178490000000     0.491550000000    -0.0980116  
C214     C      0.021190000000     0.142200000000     0.491940000000     0.076901   
C215     C      0.023070000000     0.142060000000     0.553540000000     0.0769216  
C216     C      0.023110000000     0.178360000000     0.554080000000    -0.0979176  
H1       H      0.628660000000     0.520640000000     0.078380000000     0.0213792  
H2       H      0.691660000000     0.520800000000     0.078850000000     0.0516926  
H3       H      0.691780000000     0.523510000000     0.966780000000     0.0517374  
H4       H      0.628780000000     0.523630000000     0.967110000000     0.0213726  
H5       H      0.740590000000     0.482560000000     0.062580000000     0.0360381  
H6       H      0.804050000000     0.482970000000     0.062910000000     0.036099   
H7       H      0.803960000000     0.561720000000     0.982870000000     0.0362304  
H8       H      0.740510000000     0.561930000000     0.983150000000     0.0362099  
H9       H      0.852890000000     0.466380000000     0.024700000000     0.0516781  
H10      H      0.915900000000     0.466850000000     0.024730000000     0.0214078  
H11      H      0.915780000000     0.578080000000     0.020800000000     0.0214063  
H12      H      0.852770000000     0.578430000000     0.021050000000     0.0516445  
H13      H      0.415930000000     0.524700000000     0.966840000000     0.0213802  
H14      H      0.352930000000     0.524620000000     0.966330000000     0.0516949  
H15      H      0.352740000000     0.520980000000     0.078380000000     0.051725   
H16      H      0.415740000000     0.520780000000     0.078080000000     0.0213712  
H17      H      0.304060000000     0.562800000000     0.982890000000     0.0361995  
H18      H      0.240600000000     0.562450000000     0.982450000000     0.036167   
H19      H      0.240500000000     0.483030000000     0.061820000000     0.0361171  
H20      H      0.303950000000     0.482770000000     0.061650000000     0.0360988  
H21      H      0.191680000000     0.578740000000     0.020680000000     0.0516338  
H22      H      0.128670000000     0.578280000000     0.020530000000     0.0213481  
H23      H      0.128760000000     0.467010000000     0.023520000000     0.0213712  
H24      H      0.191770000000     0.466660000000     0.023390000000     0.05168    
H25      H      0.520930000000     0.628730000000     0.078560000000     0.021441   
H26      H      0.521370000000     0.691740000000     0.079110000000     0.0517281  
H27      H      0.524660000000     0.691990000000     0.967050000000     0.0516436  
H28      H      0.524510000000     0.628990000000     0.967310000000     0.0213414  
H29      H      0.483340000000     0.740750000000     0.062720000000     0.0361018  
H30      H      0.483670000000     0.804200000000     0.062960000000     0.0360924  
H31      H      0.562740000000     0.804100000000     0.983240000000     0.0362307  
H32      H      0.563030000000     0.740640000000     0.983610000000     0.0361601  
H33      H      0.467050000000     0.852810000000     0.024570000000     0.0516261  
H34      H      0.467250000000     0.915800000000     0.024460000000     0.0213472  
H35      H      0.578500000000     0.916170000000     0.020830000000     0.0214414  
H36      H      0.579110000000     0.853150000000     0.021230000000     0.0517097  
H37      H      0.523590000000     0.415880000000     0.077960000000     0.021347   
H38      H      0.523310000000     0.352900000000     0.078270000000     0.0516794  
H39      H      0.520160000000     0.353060000000     0.966210000000     0.0517748  
H40      H      0.520160000000     0.416080000000     0.966710000000     0.021415   
H41      H      0.561630000000     0.304180000000     0.061740000000     0.0359877  
H42      H      0.561350000000     0.240740000000     0.062080000000     0.0360683  
H43      H      0.482230000000     0.240650000000     0.982390000000     0.0363245  
H44      H      0.481900000000     0.304120000000     0.982670000000     0.0360859  
H45      H      0.577920000000     0.192020000000     0.023780000000     0.0516202  
H46      H      0.577680000000     0.129030000000     0.024040000000     0.0213487  
H47      H      0.466430000000     0.128700000000     0.020680000000     0.0214003  
H48      H      0.465850000000     0.191720000000     0.020700000000     0.0517136  
H49      H      0.523920000000     0.078360000000     0.628800000000     0.0214366  
H50      H      0.523630000000     0.078890000000     0.691820000000     0.051729   
H51      H      0.520550000000     0.966820000000     0.692020000000     0.0516184  
H52      H      0.520550000000     0.967100000000     0.629030000000     0.0213338  
H53      H      0.561770000000     0.062550000000     0.740770000000     0.0361421  
H54      H      0.561490000000     0.062800000000     0.804230000000     0.036144   
H55      H      0.482590000000     0.982900000000     0.804180000000     0.0361919  
H56      H      0.482240000000     0.983280000000     0.740730000000     0.0361584  
H57      H      0.466100000000     0.020910000000     0.853140000000     0.0516431  
H58      H      0.466630000000     0.020570000000     0.916140000000     0.0213738  
H59      H      0.577870000000     0.024460000000     0.915940000000     0.0213877  
H60      H      0.578150000000     0.024510000000     0.852940000000     0.0517076  
H61      H      0.521070000000     0.966510000000     0.416150000000     0.021428   
H62      H      0.521290000000     0.965990000000     0.353130000000     0.0517446  
H63      H      0.524610000000     0.078050000000     0.352930000000     0.0516146  
H64      H      0.524670000000     0.077760000000     0.415920000000     0.0213588  
H65      H      0.483060000000     0.982490000000     0.304220000000     0.0361344  
H66      H      0.483290000000     0.982250000000     0.240750000000     0.0360815  
H67      H      0.562540000000     0.061810000000     0.240740000000     0.0359986  
H68      H      0.562920000000     0.061430000000     0.304200000000     0.0360479  
H69      H      0.466770000000     0.020700000000     0.192040000000     0.05171    
H70      H      0.467040000000     0.020750000000     0.129030000000     0.0213651  
H71      H      0.578300000000     0.023920000000     0.128810000000     0.0213586  
H72      H      0.578840000000     0.023600000000     0.191810000000     0.0516936  
H73      H      0.020100000000     0.466650000000     0.916030000000     0.0214317  
H74      H      0.020130000000     0.466140000000     0.853000000000     0.0517209  
H75      H      0.023340000000     0.578200000000     0.852830000000     0.0516576  
H76      H      0.023590000000     0.577900000000     0.915820000000     0.0213507  
H77      H      0.061700000000     0.561640000000     0.804150000000     0.0360227  
H78      H      0.061480000000     0.561970000000     0.740710000000     0.0360353  
H79      H      0.982310000000     0.482330000000     0.740560000000     0.0361445  
H80      H      0.981930000000     0.482610000000     0.804040000000     0.0361393  
H81      H      0.078050000000     0.523660000000     0.691990000000     0.051643   
H82      H      0.077850000000     0.523920000000     0.629000000000     0.0213467  
H83      H      0.966590000000     0.520630000000     0.628610000000     0.0214193  
H84      H      0.965980000000     0.520650000000     0.691630000000     0.0517317  
H85      H      0.021060000000     0.578510000000     0.128670000000     0.0214118  
H86      H      0.021570000000     0.579060000000     0.191680000000     0.0517272  
H87      H      0.024800000000     0.467000000000     0.191920000000     0.0516526  
H88      H      0.024580000000     0.467250000000     0.128930000000     0.0213245  
H89      H      0.063220000000     0.483540000000     0.240550000000     0.0360663  
H90      H      0.062960000000     0.483140000000     0.304010000000     0.0360952  
H91      H      0.983940000000     0.562920000000     0.304170000000     0.0361979  
H92      H      0.983580000000     0.562690000000     0.240720000000     0.0362461  
H93      H      0.079360000000     0.521090000000     0.353100000000     0.0516907  
H94      H      0.078740000000     0.520670000000     0.416110000000     0.0214313  
H95      H      0.967490000000     0.524370000000     0.415740000000     0.0213403  
H96      H      0.967300000000     0.524500000000     0.352750000000     0.0516778  
H97      H      0.415980000000     0.967160000000     0.523830000000     0.021349   
H98      H      0.353000000000     0.966900000000     0.523540000000     0.0516613  
H99      H      0.353250000000     0.078960000000     0.520370000000     0.0517502  
H100     H      0.416270000000     0.078410000000     0.520370000000     0.0214247  
H101     H      0.304280000000     0.983460000000     0.561820000000     0.036143   
H102     H      0.240830000000     0.983170000000     0.561500000000     0.0361707  
H103     H      0.240850000000     0.062880000000     0.482410000000     0.0361095  
H104     H      0.304320000000     0.062560000000     0.482120000000     0.0361228  
H105     H      0.192100000000     0.021440000000     0.578030000000     0.0516331  
H106     H      0.129110000000     0.021120000000     0.577730000000     0.0213424  
H107     H      0.128910000000     0.024590000000     0.466470000000     0.021387   
H108     H      0.191930000000     0.024630000000     0.465970000000     0.0517154  
H109     H      0.916010000000     0.023650000000     0.467030000000     0.0213579  
H110     H      0.853020000000     0.023360000000     0.466740000000     0.0516369  
H111     H      0.853230000000     0.020140000000     0.578810000000     0.0516977  
H112     H      0.916250000000     0.020150000000     0.578280000000     0.0214234  
H113     H      0.804290000000     0.061640000000     0.483310000000     0.0360545  
H114     H      0.740850000000     0.061380000000     0.483040000000     0.0360379  
H115     H      0.740830000000     0.982260000000     0.562720000000     0.0361343  
H116     H      0.804300000000     0.981910000000     0.562380000000     0.0361229  
H117     H      0.692150000000     0.077940000000     0.521350000000     0.0516841  
H118     H      0.629160000000     0.077700000000     0.521110000000     0.0213665  
H119     H      0.628850000000     0.966450000000     0.524550000000     0.0214203  
H120     H      0.691880000000     0.965880000000     0.524500000000     0.0517312  
H121     H      0.078570000000     0.628680000000     0.523850000000     0.0213967  
H122     H      0.079140000000     0.691680000000     0.523490000000     0.0516501  
H123     H      0.967060000000     0.691960000000     0.520550000000     0.0516731  
H124     H      0.967310000000     0.628950000000     0.520630000000     0.0214117  
H125     H      0.062820000000     0.740650000000     0.561670000000     0.0360664  
H126     H      0.063180000000     0.804110000000     0.561300000000     0.0360045  
H127     H      0.983360000000     0.804100000000     0.482310000000     0.0362155  
H128     H      0.983620000000     0.740630000000     0.482070000000     0.0362454  
H129     H      0.024810000000     0.852800000000     0.577910000000     0.051662   
H130     H      0.024770000000     0.915800000000     0.577660000000     0.0213503  
H131     H      0.021250000000     0.916060000000     0.466400000000     0.0214095  
H132     H      0.021560000000     0.853050000000     0.465850000000     0.0517382  
H133     H      0.966770000000     0.416080000000     0.520520000000     0.0213727  
H134     H      0.966190000000     0.353080000000     0.520870000000     0.0516935  
H135     H      0.078240000000     0.352790000000     0.524530000000     0.0517141  
H136     H      0.078000000000     0.415790000000     0.524460000000     0.0213818  
H137     H      0.982650000000     0.304110000000     0.482870000000     0.0360631  
H138     H      0.982250000000     0.240660000000     0.483250000000     0.0360377  
H139     H      0.061730000000     0.240630000000     0.562570000000     0.0361144  
H140     H      0.061510000000     0.304090000000     0.562810000000     0.0361189  
H141     H      0.020530000000     0.191930000000     0.466810000000     0.0516299  
H142     H      0.020510000000     0.128940000000     0.467070000000     0.0213206  
H143     H      0.023810000000     0.128680000000     0.578340000000     0.0214054  
H144     H      0.023540000000     0.191700000000     0.578880000000     0.0517153  
N1       N      0.623980000000     0.522150000000     0.022740000000    -0.208557   
N2       N      0.920580000000     0.522470000000     0.022750000000    -0.208495   
N3       N      0.420570000000     0.522730000000     0.022470000000    -0.208574   
N4       N      0.123980000000     0.522650000000     0.022040000000    -0.208551   
N5       N      0.522700000000     0.624120000000     0.022920000000    -0.208562   
N6       N      0.522860000000     0.920720000000     0.022630000000    -0.208485   
N7       N      0.521910000000     0.420720000000     0.022340000000    -0.208561   
N8       N      0.522060000000     0.124120000000     0.022370000000    -0.208584   
N9       N      0.522250000000     0.022720000000     0.624180000000    -0.208548   
N10      N      0.522260000000     0.022510000000     0.920780000000    -0.208568   
N11      N      0.522860000000     0.022140000000     0.420780000000    -0.208609   
N12      N      0.522660000000     0.022350000000     0.124180000000    -0.20854    
N13      N      0.021870000000     0.522280000000     0.920660000000    -0.208507   
N14      N      0.022230000000     0.522290000000     0.624070000000    -0.208553   
N15      N      0.022790000000     0.522870000000     0.124060000000    -0.208548   
N16      N      0.023100000000     0.522510000000     0.420660000000    -0.208562   
N17      N      0.420870000000     0.022780000000     0.522120000000    -0.208544   
N18      N      0.124270000000     0.022820000000     0.522100000000    -0.20853    
N19      N      0.920870000000     0.021930000000     0.522650000000    -0.208501   
N20      N      0.624270000000     0.022080000000     0.522810000000    -0.208555   
N21      N      0.022930000000     0.624070000000     0.522250000000    -0.208582   
N22      N      0.022990000000     0.920670000000     0.522040000000    -0.208546   
N23      N      0.022400000000     0.420670000000     0.522480000000    -0.208579   
N24      N      0.022180000000     0.124070000000     0.522700000000    -0.208536   
O1       O      0.022230000000     0.071820000000     0.493560000000    -0.557835   
O2       O      0.022650000000     0.973120000000     0.493220000000    -0.557329   
O3       O      0.973130000000     0.022300000000     0.493530000000    -0.557524   
O4       O      0.071840000000     0.022730000000     0.493240000000    -0.557417   
O5       O      0.072000000000     0.022450000000     0.551210000000    -0.55798    
O6       O      0.973310000000     0.022000000000     0.551500000000    -0.557342   
O7       O      0.022920000000     0.972920000000     0.551190000000    -0.557709   
O8       O      0.022480000000     0.071620000000     0.551530000000    -0.557384   
O9       O      0.993550000000     0.473100000000     0.522080000000    -0.557372   
O10      O      0.993810000000     0.571800000000     0.522300000000    -0.55751    
O11      O      0.993900000000     0.522610000000     0.472880000000    -0.557561   
O12      O      0.993460000000     0.522290000000     0.571580000000    -0.557279   
O13      O      0.051430000000     0.522440000000     0.571840000000    -0.557671   
O14      O      0.051870000000     0.522160000000     0.473140000000    -0.557288   
O15      O      0.051780000000     0.571650000000     0.522410000000    -0.557495   
O16      O      0.051520000000     0.472950000000     0.522670000000    -0.557505   
O17      O      0.522260000000     0.993600000000     0.571910000000    -0.557787   
O18      O      0.522580000000     0.993300000000     0.473210000000    -0.557274   
O19      O      0.571810000000     0.993270000000     0.522770000000    -0.557445   
O20      O      0.473120000000     0.993630000000     0.522440000000    -0.557844   
O21      O      0.473320000000     0.051600000000     0.522170000000    -0.557212   
O22      O      0.572030000000     0.051240000000     0.522510000000    -0.557633   
O23      O      0.522880000000     0.051270000000     0.473040000000    -0.557738   
O24      O      0.522550000000     0.051570000000     0.571730000000    -0.557242   
O25      O      0.493270000000     0.071660000000     0.022370000000    -0.557214   
O26      O      0.493680000000     0.972950000000     0.022710000000    -0.557555   
O27      O      0.493570000000     0.022390000000     0.071890000000    -0.557471   
O28      O      0.493380000000     0.022140000000     0.973190000000    -0.557599   
O29      O      0.551340000000     0.022700000000     0.973070000000    -0.557649   
O30      O      0.551540000000     0.022470000000     0.071770000000    -0.557696   
O31      O      0.551650000000     0.973200000000     0.022300000000    -0.557303   
O32      O      0.551240000000     0.071890000000     0.022560000000    -0.557878   
O33      O      0.021940000000     0.493420000000     0.973100000000    -0.557095   
O34      O      0.022670000000     0.493730000000     0.071810000000    -0.557713   
O35      O      0.972950000000     0.493530000000     0.022830000000    -0.557393   
O36      O      0.071650000000     0.493620000000     0.022170000000    -0.557626   
O37      O      0.071600000000     0.551590000000     0.022150000000    -0.557636   
O38      O      0.972900000000     0.551500000000     0.022310000000    -0.557545   
O39      O      0.022310000000     0.551700000000     0.071620000000    -0.557541   
O40      O      0.022200000000     0.551390000000     0.972920000000    -0.557749   
O41      O      0.521980000000     0.473160000000     0.993480000000    -0.557306   
O42      O      0.522650000000     0.571860000000     0.993790000000    -0.557718   
O43      O      0.571660000000     0.522260000000     0.993700000000    -0.557668   
O44      O      0.472970000000     0.522850000000     0.993560000000    -0.557452   
O45      O      0.472890000000     0.522340000000     0.051530000000    -0.557348   
O46      O      0.571590000000     0.522240000000     0.051670000000    -0.557522   
O47      O      0.522260000000     0.571680000000     0.051760000000    -0.557308   
O48      O      0.522210000000     0.472980000000     0.051450000000    -0.557766   
V1       V      0.022470000000     0.022490000000     0.491090000000     1.39517    
V2       V      0.022680000000     0.022250000000     0.553650000000     1.39583    
V3       V      0.991390000000     0.522460000000     0.522210000000     1.39567    
V4       V      0.053940000000     0.522290000000     0.522520000000     1.39542    
V5       V      0.522440000000     0.991160000000     0.522590000000     1.39608    
V6       V      0.522700000000     0.053710000000     0.522360000000     1.39529    
V7       V      0.491180000000     0.022280000000     0.022540000000     1.39498    
V8       V      0.553730000000     0.022570000000     0.022420000000     1.39583    
V9       V      0.022310000000     0.491280000000     0.022480000000     1.39508    
V10      V      0.022250000000     0.553840000000     0.022250000000     1.39568    
V11      V      0.522320000000     0.522530000000     0.991340000000     1.3959     
V12      V      0.522240000000     0.522310000000     0.053890000000     1.39541    


