data_structure

_audit_creation_method RASPA-1.0
_audit_creation_date 2023-5-19
_audit_author_name 'Poobodin Mano'

_cell_length_a    38.5305
_cell_length_b    38.5239
_cell_length_c    38.5192
_cell_angle_alpha 90
_cell_angle_beta  90
_cell_angle_gamma 90
_cell_volume      57175.8

_symmetry_cell_setting          triclinic
_symmetry_space_group_name_Hall 'P 1'
_symmetry_space_group_name_H-M  'P 1'
_symmetry_Int_Tables_number     1

_symmetry_equiv_pos_as_xyz 'x,y,z'

loop_
_atom_site_label
_atom_site_type_symbol
_atom_site_fract_x
_atom_site_fract_y
_atom_site_fract_z
_atom_site_charge
C1       C      0.991070000000     0.063370000000     0.509050000000     0.480655   
C2       C      0.992870000000     0.931480000000     0.503030000000     0.479827   
C3       C      0.926130000000     0.996500000000     0.507570000000     0.480914   
C4       C      0.058120000000     0.998140000000     0.504620000000     0.479398   
C5       C      0.993700000000     0.431600000000     0.498420000000     0.479515   
C6       C      0.997160000000     0.563420000000     0.491810000000     0.48116    
C7       C      0.994940000000     0.494040000000     0.429230000000     0.48071    
C8       C      0.995360000000     0.500920000000     0.561290000000     0.48087    
C9       C      0.558150000000     0.999200000000     0.498020000000     0.480001   
C10      C      0.426280000000     0.004370000000     0.500000000000     0.481207   
C11      C      0.491380000000     0.996800000000     0.432830000000     0.480891   
C12      C      0.493090000000     0.006410000000     0.564700000000     0.481003   
C13      C      0.499590000000     0.995640000000     0.064440000000     0.479898   
C14      C      0.500840000000     0.998640000000     0.932630000000     0.479818   
C15      C      0.495640000000     0.062930000000     0.999830000000     0.480574   
C16      C      0.505160000000     0.931070000000     0.996920000000     0.480265   
C17      C      0.006160000000     0.501760000000     0.061170000000     0.479445   
C18      C      0.007250000000     0.504890000000     0.929340000000     0.479559   
C19      C      0.072670000000     0.506340000000     0.996000000000     0.480894   
C20      C      0.940770000000     0.500650000000     0.994680000000     0.479065   
C21      C      0.504690000000     0.430930000000     0.002780000000     0.47984    
C22      C      0.508270000000     0.562700000000     0.001330000000     0.479808   
C23      C      0.440790000000     0.498530000000     0.000790000000     0.479764   
C24      C      0.572700000000     0.494680000000     0.003510000000     0.48072    
C25      C      0.664970000000     0.489400000000     0.032050000000    -0.107491   
C26      C      0.886000000000     0.529330000000     0.995070000000     0.0772179  
C27      C      0.888290000000     0.467850000000     0.994030000000     0.0769739  
C28      C      0.849780000000     0.528460000000     0.995240000000    -0.0975754  
C29      C      0.774010000000     0.518750000000     0.975910000000    -0.036238   
C30      C      0.737770000000     0.518000000000     0.977200000000    -0.0347648  
C31      C      0.793780000000     0.495260000000     0.995660000000    -0.00797147 
C32      C      0.852070000000     0.466050000000     0.994260000000    -0.0974947  
C33      C      0.720440000000     0.493820000000     0.998320000000    -0.0103531  
C34      C      0.661820000000     0.497390000000     0.970440000000    -0.100175   
C35      C      0.740200000000     0.470140000000     0.017840000000    -0.0348175  
C36      C      0.625720000000     0.497270000000     0.972700000000     0.0761246  
C37      C      0.628530000000     0.489250000000     0.033900000000     0.106719   
C38      C      0.776440000000     0.470830000000     0.016500000000    -0.0360037  
C39      C      0.832340000000     0.496580000000     0.994920000000     0.0511206  
C40      C      0.681910000000     0.493530000000     0.000270000000     0.0562262  
C41      C      0.164400000000     0.536940000000     0.999450000000    -0.107682   
C42      C      0.387660000000     0.499180000000     0.969080000000     0.0770042  
C43      C      0.386650000000     0.500210000000     0.030610000000     0.0772632  
C44      C      0.351430000000     0.499920000000     0.968010000000    -0.0975737  
C45      C      0.274970000000     0.481320000000     0.974890000000    -0.0362061  
C46      C      0.238710000000     0.482320000000     0.974450000000    -0.0348433  
C47      C      0.293810000000     0.501990000000     0.998360000000    -0.00804682 
C48      C      0.350430000000     0.501050000000     0.030470000000    -0.0976157  
C49      C      0.220480000000     0.504100000000     0.997360000000    -0.0103404  
C50      C      0.162450000000     0.475030000000     0.993900000000    -0.100145   
C51      C      0.239320000000     0.524740000000     0.020820000000    -0.0348597  
C52      C      0.126320000000     0.476600000000     0.993810000000     0.0759547  
C53      C      0.127940000000     0.538120000000     0.999310000000     0.106584   
C54      C      0.275550000000     0.523690000000     0.021320000000    -0.036049   
C55      C      0.332350000000     0.500930000000     0.998940000000     0.0511192  
C56      C      0.181940000000     0.505350000000     0.996810000000     0.0561654  
C57      C      0.538590000000     0.840360000000     0.993510000000    -0.107419   
C58      C      0.509210000000     0.615930000000     0.969850000000     0.0771161  
C59      C      0.508170000000     0.616800000000     0.031380000000     0.0772362  
C60      C      0.509140000000     0.652160000000     0.968870000000    -0.0975107  
C61      C      0.487210000000     0.728650000000     0.022340000000    -0.0360933  
C62      C      0.486940000000     0.764940000000     0.021680000000    -0.0348124  
C63      C      0.508260000000     0.709810000000     0.999220000000    -0.00792794 
C64      C      0.508060000000     0.653060000000     0.031330000000    -0.0973384  
C65      C      0.507760000000     0.783220000000     0.997940000000    -0.0101565  
C66      C      0.476790000000     0.840350000000     0.000450000000    -0.0997968  
C67      C      0.528770000000     0.764380000000     0.974800000000    -0.0349123  
C68      C      0.477140000000     0.876520000000     0.999810000000     0.0759043  
C69      C      0.538510000000     0.876840000000     0.992800000000     0.106689   
C70      C      0.529020000000     0.728110000000     0.975430000000    -0.0360878  
C71      C      0.508500000000     0.671220000000     0.999820000000     0.0510221  
C72      C      0.507690000000     0.821810000000     0.997370000000     0.0559193  
C73      C      0.463300000000     0.154160000000     0.998970000000    -0.107499   
C74      C      0.502780000000     0.377060000000     0.972480000000     0.0772744  
C75      C      0.502160000000     0.377580000000     0.034020000000     0.077431   
C76      C      0.500990000000     0.340860000000     0.972300000000    -0.0977395  
C77      C      0.517830000000     0.264650000000     0.027580000000    -0.0361635  
C78      C      0.516550000000     0.228400000000     0.027380000000    -0.0348719  
C79      C      0.497950000000     0.284030000000     0.003910000000    -0.00791178 
C80      C      0.500460000000     0.341370000000     0.034780000000    -0.0976054  
C81      C      0.495290000000     0.210710000000     0.003580000000    -0.0101785  
C82      C      0.525120000000     0.153120000000     0.005610000000    -0.100325   
C83      C      0.475170000000     0.230090000000     0.980110000000    -0.0349271  
C84      C      0.524220000000     0.117010000000     0.004380000000     0.0763806  
C85      C      0.462810000000     0.117670000000     0.997790000000     0.106542   
C86      C      0.476520000000     0.266340000000     0.980240000000    -0.0361648  
C87      C      0.499780000000     0.322550000000     0.003680000000     0.051314   
C88      C      0.494520000000     0.172150000000     0.002870000000     0.0562628  
C89      C      0.492150000000     0.039110000000     0.655710000000    -0.107233   
C90      C      0.531670000000     0.002470000000     0.879070000000     0.0774191  
C91      C      0.470240000000     0.998990000000     0.878920000000     0.07737    
C92      C      0.532110000000     0.004150000000     0.842830000000    -0.0973342  
C93      C      0.524900000000     0.986400000000     0.766010000000    -0.0362689  
C94      C      0.524080000000     0.987510000000     0.729750000000    -0.0349416  
C95      C      0.500690000000     0.005320000000     0.785690000000    -0.0077338  
C96      C      0.469740000000     0.000750000000     0.842740000000    -0.0972352  
C97      C      0.499130000000     0.007690000000     0.712350000000    -0.0100676  
C98      C      0.501060000000     0.977540000000     0.654900000000    -0.100323   
C99      C      0.475190000000     0.026930000000     0.732040000000    -0.0348139  
C100     C      0.499010000000     0.978150000000     0.618810000000     0.0765716  
C101     C      0.490110000000     0.039290000000     0.619260000000     0.106576   
C102     C      0.475930000000     0.025720000000     0.768280000000    -0.0360508  
C103     C      0.500890000000     0.003430000000     0.824220000000     0.0511632  
C104     C      0.497670000000     0.008180000000     0.673810000000     0.0562994  
C105     C      0.490120000000     0.963450000000     0.341970000000    -0.107393   
C106     C      0.529440000000     0.996870000000     0.118660000000     0.0772818  
C107     C      0.468030000000     0.993270000000     0.117540000000     0.0775063  
C108     C      0.529240000000     0.996680000000     0.154930000000    -0.097448   
C109     C      0.519100000000     0.016180000000     0.230780000000    -0.0359485  
C110     C      0.518030000000     0.016180000000     0.267060000000    -0.0347035  
C111     C      0.496870000000     0.994550000000     0.211550000000    -0.00800675 
C112     C      0.466900000000     0.993050000000     0.153750000000    -0.0976113  
C113     C      0.494720000000     0.994530000000     0.284950000000    -0.0101915  
C114     C      0.495700000000     0.025380000000     0.342190000000    -0.0997675  
C115     C      0.472530000000     0.972870000000     0.265710000000    -0.0348751  
C116     C      0.494560000000     0.024930000000     0.378340000000     0.0762363  
C117     C      0.488900000000     0.963420000000     0.378450000000     0.106637   
C118     C      0.473600000000     0.972870000000     0.229460000000    -0.035975   
C119     C      0.497700000000     0.994750000000     0.172950000000     0.0512455  
C120     C      0.493570000000     0.994470000000     0.323540000000     0.0559523  
C121     C      0.968680000000     0.508100000000     0.654040000000    -0.107521   
C122     C      0.006580000000     0.536680000000     0.876230000000     0.0772303  
C123     C      0.008810000000     0.475200000000     0.875130000000     0.0773699  
C124     C      0.006570000000     0.537780000000     0.839980000000    -0.0974455  
C125     C      0.984970000000     0.530540000000     0.764440000000    -0.0360298  
C126     C      0.983360000000     0.530260000000     0.728200000000    -0.0349648  
C127     C      0.006880000000     0.507410000000     0.782230000000    -0.00786947 
C128     C      0.008850000000     0.475360000000     0.838890000000    -0.0976657  
C129     C      0.003610000000     0.506830000000     0.708880000000    -0.0100599  
C130     C      0.030410000000     0.502010000000     0.649760000000    -0.0998189  
C131     C      0.025910000000     0.484060000000     0.726630000000    -0.0348041  
C132     C      0.027360000000     0.500730000000     0.613720000000     0.0760636  
C133     C      0.966010000000     0.506830000000     0.617670000000     0.106645   
C134     C      0.027510000000     0.484320000000     0.762880000000    -0.0361479  
C135     C      0.007630000000     0.506880000000     0.820820000000     0.0511602  
C136     C      0.000930000000     0.505700000000     0.670380000000     0.0561256  
C137     C      0.967310000000     0.488300000000     0.336820000000    -0.10743    
C138     C      0.007260000000     0.469520000000     0.113920000000     0.0773093  
C139     C      0.004370000000     0.530960000000     0.115720000000     0.0771937  
C140     C      0.006780000000     0.467950000000     0.150120000000    -0.0976344  
C141     C      0.983790000000     0.471950000000     0.225270000000    -0.035983   
C142     C      0.982400000000     0.470810000000     0.261480000000    -0.035006   
C143     C      0.003810000000     0.497260000000     0.208220000000    -0.00791861 
C144     C      0.003880000000     0.530320000000     0.152000000000    -0.0973008  
C145     C      0.000980000000     0.494960000000     0.281560000000    -0.00996749 
C146     C      0.028540000000     0.498710000000     0.340390000000    -0.0997626  
C147     C      0.021190000000     0.520140000000     0.264550000000    -0.0348832  
C148     C      0.026140000000     0.497870000000     0.376500000000     0.0763342  
C149     C      0.965350000000     0.487370000000     0.373230000000     0.107112   
C150     C      0.022540000000     0.521320000000     0.228290000000    -0.0360618  
C151     C      0.004970000000     0.498550000000     0.169660000000     0.0511561  
C152     C      0.998950000000     0.494080000000     0.320100000000     0.055985   
C153     C      0.334730000000     0.034980000000     0.504630000000    -0.107378   
C154     C      0.112330000000     0.997800000000     0.534370000000     0.0772979  
C155     C      0.111220000000     0.999670000000     0.472870000000     0.0765688  
C156     C      0.148560000000     0.998360000000     0.534210000000    -0.0972777  
C157     C      0.223940000000     0.980780000000     0.477820000000    -0.0363623  
C158     C      0.260220000000     0.981650000000     0.477430000000    -0.0349565  
C159     C      0.205170000000     0.000520000000     0.502120000000    -0.00753073 
C160     C      0.147470000000     0.000140000000     0.471770000000    -0.096939   
C161     C      0.278520000000     0.002420000000     0.501210000000    -0.0100104  
C162     C      0.336480000000     0.973250000000     0.497000000000    -0.099993   
C163     C      0.259740000000     0.022150000000     0.525480000000    -0.0348387  
C164     C      0.372630000000     0.974690000000     0.497200000000     0.0763451  
C165     C      0.371180000000     0.035990000000     0.504850000000     0.106787   
C166     C      0.223500000000     0.021190000000     0.525950000000    -0.0361148  
C167     C      0.166610000000     0.999590000000     0.502680000000     0.0506412  
C168     C      0.317080000000     0.003550000000     0.500760000000     0.0562402  
C169     C      0.833700000000     0.994520000000     0.536180000000    -0.107372   
C170     C      0.610800000000     0.966760000000     0.500390000000     0.0772528  
C171     C      0.612740000000     0.028060000000     0.495270000000     0.0776636  
C172     C      0.647030000000     0.965190000000     0.500700000000    -0.0974538  
C173     C      0.722600000000     0.972840000000     0.522440000000    -0.0359704  
C174     C      0.758830000000     0.972620000000     0.523890000000    -0.0348517  
C175     C      0.705110000000     0.994730000000     0.499060000000    -0.00803459 
C176     C      0.648960000000     0.027410000000     0.495400000000    -0.0974364  
C177     C      0.778420000000     0.994210000000     0.501940000000    -0.0103195  
C178     C      0.837120000000     0.995460000000     0.474080000000    -0.100165   
C179     C      0.760950000000     0.015790000000     0.478260000000    -0.0346841  
C180     C      0.873190000000     0.996100000000     0.476500000000     0.0761291  
C181     C      0.870120000000     0.995310000000     0.538210000000     0.106391   
C182     C      0.724710000000     0.016080000000     0.476870000000    -0.0359986  
C183     C      0.666570000000     0.995740000000     0.498240000000     0.0511801  
C184     C      0.816920000000     0.994600000000     0.504060000000     0.0561969  
C185     C      0.026750000000     0.655220000000     0.485910000000    -0.107501   
C186     C      0.993950000000     0.876440000000     0.531270000000     0.0773375  
C187     C      0.991860000000     0.879300000000     0.469830000000     0.0772479  
C188     C      0.993940000000     0.840200000000     0.530050000000    -0.0973923  
C189     C      0.973840000000     0.764620000000     0.519910000000    -0.0360489  
C190     C      0.974410000000     0.728370000000     0.518380000000    -0.0347463  
C191     C      0.993140000000     0.784520000000     0.496160000000    -0.0079131  
C192     C      0.991810000000     0.843120000000     0.467670000000    -0.0975813  
C193     C      0.994320000000     0.711170000000     0.493090000000    -0.0101039  
C194     C      0.965510000000     0.652950000000     0.496610000000    -0.0998297  
C195     C      0.013420000000     0.731070000000     0.469200000000    -0.0348259  
C196     C      0.967140000000     0.616810000000     0.495760000000     0.0766197  
C197     C      0.027920000000     0.618780000000     0.484930000000     0.107334   
C198     C      0.012860000000     0.767300000000     0.470720000000    -0.0360019  
C199     C      0.992890000000     0.823070000000     0.497990000000     0.0511739  
C200     C      0.995510000000     0.672610000000     0.491900000000     0.0561642  
C201     C      0.986990000000     0.155160000000     0.539480000000    -0.107172   
C202     C      0.961870000000     0.378570000000     0.500930000000     0.0773134  
C203     C      0.023380000000     0.377410000000     0.500520000000     0.0774856  
C204     C      0.960760000000     0.342330000000     0.502320000000    -0.097131   
C205     C      0.014370000000     0.265100000000     0.483630000000    -0.0361297  
C206     C      0.014070000000     0.228860000000     0.484910000000    -0.0347881  
C207     C      0.991090000000     0.284600000000     0.503890000000    -0.00790159 
C208     C      0.023200000000     0.341200000000     0.501840000000    -0.0975315  
C209     C      0.990540000000     0.211230000000     0.506510000000    -0.0101761  
C210     C      0.993500000000     0.153100000000     0.477650000000    -0.100091   
C211     C      0.967210000000     0.230710000000     0.526730000000    -0.0348711  
C212     C      0.993380000000     0.116980000000     0.479260000000     0.0762096  
C213     C      0.986860000000     0.118670000000     0.540680000000     0.106295   
C214     C      0.967450000000     0.266970000000     0.525400000000    -0.0360219  
C215     C      0.991660000000     0.323170000000     0.502700000000     0.0511328  
C216     C      0.990360000000     0.172660000000     0.507910000000     0.0560495  
H1       H      0.902510000000     0.443570000000     0.993480000000     0.0216768  
H2       H      0.611770000000     0.500630000000     0.948480000000     0.0227945  
H3       H      0.790890000000     0.452580000000     0.032270000000     0.0365984  
H4       H      0.723310000000     0.536760000000     0.962050000000     0.0361723  
H5       H      0.673910000000     0.500200000000     0.945200000000     0.0525852  
H6       H      0.786550000000     0.537640000000     0.959300000000     0.0365052  
H7       H      0.680330000000     0.486510000000     0.055510000000     0.0574452  
H8       H      0.839640000000     0.440840000000     0.993580000000     0.0519261  
H9       H      0.835580000000     0.552710000000     0.996220000000     0.0521082  
H10      H      0.727650000000     0.450910000000     0.034060000000     0.0365165  
H11      H      0.898350000000     0.554610000000     0.995530000000     0.0219546  
H12      H      0.399520000000     0.500250000000     0.055640000000     0.0219025  
H13      H      0.112870000000     0.451990000000     0.991500000000     0.0229381  
H14      H      0.289280000000     0.540180000000     0.039480000000     0.0365765  
H15      H      0.224950000000     0.466310000000     0.955870000000     0.0361142  
H16      H      0.175030000000     0.449940000000     0.992170000000     0.0525728  
H17      H      0.288250000000     0.464070000000     0.957100000000     0.0364562  
H18      H      0.179330000000     0.560780000000     0.001320000000     0.0574265  
H19      H      0.336700000000     0.501350000000     0.055010000000     0.0520431  
H20      H      0.338510000000     0.500210000000     0.943040000000     0.0520063  
H21      H      0.226040000000     0.541510000000     0.039060000000     0.0365528  
H22      H      0.401380000000     0.498550000000     0.944510000000     0.0217273  
H23      H      0.507860000000     0.603840000000     0.056360000000     0.0221996  
H24      H      0.452170000000     0.889220000000     0.002540000000     0.0230585  
H25      H      0.545780000000     0.714420000000     0.957490000000     0.036515   
H26      H      0.470690000000     0.778680000000     0.040050000000     0.0362225  
H27      H      0.452180000000     0.826990000000     0.002990000000     0.0525774  
H28      H      0.470630000000     0.715360000000     0.040740000000     0.0365207  
H29      H      0.562870000000     0.826230000000     0.991250000000     0.0573472  
H30      H      0.508040000000     0.666740000000     0.055890000000     0.0521854  
H31      H      0.509060000000     0.665120000000     0.943910000000     0.0519003  
H32      H      0.544830000000     0.777650000000     0.955920000000     0.0364806  
H33      H      0.509520000000     0.602300000000     0.945230000000     0.0216766  
H34      H      0.502460000000     0.391090000000     0.058720000000     0.0222188  
H35      H      0.549050000000     0.103970000000     0.006710000000     0.0231382  
H36      H      0.460610000000     0.280520000000     0.961910000000     0.0366279  
H37      H      0.532120000000     0.214210000000     0.046000000000     0.0362187  
H38      H      0.549950000000     0.166050000000     0.008210000000     0.0527769  
H39      H      0.534820000000     0.277480000000     0.045940000000     0.03662    
H40      H      0.439240000000     0.168740000000     0.997070000000     0.0573111  
H41      H      0.499200000000     0.328260000000     0.059620000000     0.052226   
H42      H      0.501010000000     0.327320000000     0.947660000000     0.0521409  
H43      H      0.458780000000     0.217230000000     0.961230000000     0.0366151  
H44      H      0.503740000000     0.390120000000     0.947570000000     0.0218174  
H45      H      0.445480000000     0.996890000000     0.892120000000     0.0224142  
H46      H      0.502120000000     0.953380000000     0.605790000000     0.0228915  
H47      H      0.457160000000     0.040900000000     0.782700000000     0.0368682  
H48      H      0.543070000000     0.972640000000     0.715300000000     0.0363087  
H49      H      0.504840000000     0.952910000000     0.667930000000     0.0528482  
H50      H      0.544120000000     0.970220000000     0.778630000000     0.0366675  
H51      H      0.489460000000     0.063160000000     0.670180000000     0.0574581  
H52      H      0.445040000000     0.999590000000     0.829360000000     0.0521531  
H53      H      0.556770000000     0.006520000000     0.829540000000     0.0522856  
H54      H      0.455440000000     0.042460000000     0.719430000000     0.0367889  
H55      H      0.556420000000     0.003310000000     0.892450000000     0.0222422  
H56      H      0.443500000000     0.992040000000     0.103800000000     0.0222037  
H57      H      0.496450000000     0.049950000000     0.391090000000     0.0235554  
H58      H      0.456370000000     0.955610000000     0.215470000000     0.0365071  
H59      H      0.535710000000     0.032930000000     0.281110000000     0.0361795  
H60      H      0.497870000000     0.050090000000     0.328930000000     0.0527257  
H61      H      0.537070000000     0.033470000000     0.217810000000     0.0364849  
H62      H      0.488720000000     0.939140000000     0.327760000000     0.0572849  
H63      H      0.441900000000     0.992030000000     0.166570000000     0.0521214  
H64      H      0.553710000000     0.997590000000     0.168720000000     0.0521132  
H65      H      0.454000000000     0.956160000000     0.278660000000     0.0364763  
H66      H      0.554420000000     0.998300000000     0.105790000000     0.0220549  
H67      H      0.009570000000     0.450160000000     0.887970000000     0.0217406  
H68      H      0.051370000000     0.497760000000     0.599340000000     0.0234511  
H69      H      0.044970000000     0.466450000000     0.775760000000     0.0364767  
H70      H      0.966240000000     0.548450000000     0.715310000000     0.03656    
H71      H      0.055980000000     0.500450000000     0.661360000000     0.052714   
H72      H      0.968510000000     0.548450000000     0.778530000000     0.0365704  
H73      H      0.945470000000     0.510580000000     0.669830000000     0.0574029  
H74      H      0.009200000000     0.450830000000     0.825170000000     0.0520856  
H75      H      0.006040000000     0.562750000000     0.827080000000     0.0521284  
H76      H      0.041670000000     0.465520000000     0.712540000000     0.036232   
H77      H      0.005750000000     0.561220000000     0.889990000000     0.0221514  
H78      H      0.003280000000     0.556110000000     0.103140000000     0.0222159  
H79      H      0.050080000000     0.502050000000     0.390700000000     0.0232407  
H80      H      0.038510000000     0.540910000000     0.215970000000     0.0365846  
H81      H      0.966900000000     0.450830000000     0.273770000000     0.0365559  
H82      H      0.053680000000     0.502720000000     0.328450000000     0.0527594  
H83      H      0.968760000000     0.453240000000     0.210610000000     0.0365467  
H84      H      0.944060000000     0.484610000000     0.321320000000     0.0575018  
H85      H      0.002060000000     0.554600000000     0.166050000000     0.0522138  
H86      H      0.008170000000     0.442840000000     0.162690000000     0.051988   
H87      H      0.035590000000     0.539290000000     0.279260000000     0.0364344  
H88      H      0.008700000000     0.445150000000     0.099920000000     0.021789   
H89      H      0.097470000000     0.000310000000     0.448320000000     0.0218272  
H90      H      0.386100000000     0.950190000000     0.493940000000     0.0232868  
H91      H      0.209830000000     0.036970000000     0.544790000000     0.0369102  
H92      H      0.273940000000     0.966350000000     0.458240000000     0.0363583  
H93      H      0.323820000000     0.948290000000     0.494350000000     0.0529347  
H94      H      0.210590000000     0.964340000000     0.459320000000     0.0365585  
H95      H      0.319890000000     0.058770000000     0.507500000000     0.0575374  
H96      H      0.160380000000     0.001490000000     0.446830000000     0.0519022  
H97      H      0.162320000000     0.997440000000     0.558720000000     0.0522037  
H98      H      0.273070000000     0.038110000000     0.544400000000     0.0368111  
H99      H      0.099490000000     0.996780000000     0.559400000000     0.0224565  
H100     H      0.600250000000     0.053200000000     0.493240000000     0.0223704  
H101     H      0.887210000000     0.996530000000     0.452100000000     0.0230336  
H102     H      0.712030000000     0.032970000000     0.458310000000     0.0365806  
H103     H      0.771540000000     0.955430000000     0.542160000000     0.0366187  
H104     H      0.825140000000     0.995210000000     0.448640000000     0.0526386  
H105     H      0.708260000000     0.956300000000     0.540090000000     0.0366561  
H106     H      0.818200000000     0.994500000000     0.559730000000     0.0575018  
H107     H      0.663040000000     0.051700000000     0.493890000000     0.0523429  
H108     H      0.659610000000     0.940110000000     0.502530000000     0.0521465  
H109     H      0.775270000000     0.032930000000     0.461190000000     0.0363158  
H110     H      0.596710000000     0.942480000000     0.502330000000     0.0220949  
H111     H      0.990910000000     0.893730000000     0.445690000000     0.0216995  
H112     H      0.942910000000     0.603140000000     0.500030000000     0.0236749  
H113     H      0.028290000000     0.781810000000     0.452240000000     0.0365159  
H114     H      0.959620000000     0.713800000000     0.537350000000     0.0364158  
H115     H      0.940640000000     0.665390000000     0.500760000000     0.0529768  
H116     H      0.958060000000     0.777060000000     0.539580000000     0.0366425  
H117     H      0.050320000000     0.670220000000     0.482170000000     0.0573896  
H118     H      0.990510000000     0.830990000000     0.442340000000     0.0519676  
H119     H      0.995270000000     0.825750000000     0.554130000000     0.0522375  
H120     H      0.028710000000     0.718650000000     0.449140000000     0.0364615  
H121     H      0.994910000000     0.888580000000     0.556640000000     0.0223449  
H122     H      0.048430000000     0.390220000000     0.499950000000     0.0219952  
H123     H      0.996100000000     0.103490000000     0.454700000000     0.0229034  
H124     H      0.949390000000     0.281220000000     0.541560000000     0.0368536  
H125     H      0.032570000000     0.214630000000     0.469230000000     0.036257   
H126     H      0.995700000000     0.165610000000     0.452560000000     0.0526234  
H127     H      0.032660000000     0.277850000000     0.466510000000     0.0366352  
H128     H      0.984700000000     0.170120000000     0.563260000000     0.0574467  
H129     H      0.047720000000     0.327470000000     0.502590000000     0.0521411  
H130     H      0.935780000000     0.329430000000     0.502580000000     0.0523289  
H131     H      0.948510000000     0.217910000000     0.543360000000     0.0367968  
H132     H      0.937330000000     0.392330000000     0.500490000000     0.0227342  
N1       N      0.608650000000     0.493610000000     0.003950000000    -0.208993   
N2       N      0.905170000000     0.499260000000     0.994540000000    -0.208405   
N3       N      0.108620000000     0.507620000000     0.996420000000    -0.20901    
N4       N      0.405180000000     0.499320000000     0.000150000000    -0.208511   
N5       N      0.507490000000     0.895170000000     0.996360000000    -0.208882   
N6       N      0.508640000000     0.598340000000     0.000870000000    -0.208365   
N7       N      0.493600000000     0.098850000000     0.000590000000    -0.208914   
N8       N      0.503270000000     0.395330000000     0.003110000000    -0.208481   
N9       N      0.493920000000     0.008530000000     0.600580000000    -0.209044   
N10      N      0.500960000000     0.999960000000     0.897010000000    -0.208358   
N11      N      0.491450000000     0.994470000000     0.396910000000    -0.208924   
N12      N      0.499060000000     0.995210000000     0.100070000000    -0.208439   
N13      N      0.995650000000     0.502890000000     0.597230000000    -0.20882    
N14      N      0.007570000000     0.505610000000     0.893710000000    -0.208459   
N15      N      0.994950000000     0.492840000000     0.393300000000    -0.209131   
N16      N      0.005950000000     0.500780000000     0.096790000000    -0.208412   
N17      N      0.390360000000     0.005580000000     0.500760000000    -0.208939   
N18      N      0.093750000000     0.998540000000     0.503940000000    -0.208241   
N19      N      0.890150000000     0.995980000000     0.508040000000    -0.208818   
N20      N      0.593760000000     0.997980000000     0.497840000000    -0.208456   
N21      N      0.997930000000     0.599340000000     0.490580000000    -0.209189   
N22      N      0.992930000000     0.895880000000     0.501390000000    -0.208439   
N23      N      0.990370000000     0.099330000000     0.510270000000    -0.208772   
N24      N      0.992960000000     0.396000000000     0.499980000000    -0.208262   
O1       O      0.991020000000     0.047830000000     0.479460000000    -0.557079   
O2       O      0.992050000000     0.949410000000     0.474890000000    -0.557409   
O3       O      0.942310000000     0.998050000000     0.478350000000    -0.556532   
O4       O      0.040870000000     0.999160000000     0.476050000000    -0.556426   
O5       O      0.042090000000     0.996760000000     0.533860000000    -0.557603   
O6       O      0.943650000000     0.995310000000     0.535870000000    -0.554181   
O7       O      0.993500000000     0.946800000000     0.532680000000    -0.557088   
O8       O      0.992120000000     0.045270000000     0.537010000000    -0.55295    
O9       O      0.965170000000     0.448920000000     0.497740000000    -0.555222   
O10      O      0.967830000000     0.547430000000     0.492890000000    -0.555421   
O11      O      0.966310000000     0.495750000000     0.446160000000    -0.555057   
O12      O      0.966650000000     0.500650000000     0.544440000000    -0.555424   
O13      O      0.024210000000     0.499120000000     0.544480000000    -0.555      
O14      O      0.023920000000     0.494360000000     0.445880000000    -0.555048   
O15      O      0.025420000000     0.545830000000     0.492800000000    -0.554381   
O16      O      0.023000000000     0.447540000000     0.497550000000    -0.557903   
O17      O      0.540490000000     0.970970000000     0.500310000000    -0.55601    
O18      O      0.441940000000     0.974880000000     0.501430000000    -0.55568    
O19      O      0.490570000000     0.969400000000     0.451750000000    -0.554322   
O20      O      0.491960000000     0.976450000000     0.549960000000    -0.558115   
O21      O      0.494120000000     0.033900000000     0.545880000000    -0.552575   
O22      O      0.492640000000     0.026800000000     0.447520000000    -0.556472   
O23      O      0.444210000000     0.032320000000     0.497410000000    -0.55433    
O24      O      0.542560000000     0.028630000000     0.496060000000    -0.557969   
O25      O      0.528660000000     0.997920000000     0.048170000000    -0.555743   
O26      O      0.529590000000     0.000190000000     0.949520000000    -0.555348   
O27      O      0.525580000000     0.048110000000     0.999950000000    -0.558335   
O28      O      0.532590000000     0.949950000000     0.997740000000    -0.554408   
O29      O      0.475130000000     0.945770000000     0.997170000000    -0.556333   
O30      O      0.468120000000     0.044140000000     0.999240000000    -0.552801   
O31      O      0.471890000000     0.996090000000     0.949010000000    -0.558116   
O32      O      0.470950000000     0.993910000000     0.047420000000    -0.558185   
O33      O      0.007530000000     0.473290000000     0.043800000000    -0.557939   
O34      O      0.008260000000     0.475630000000     0.945350000000    -0.55823    
O35      O      0.057120000000     0.476760000000     0.995000000000    -0.556729   
O36      O      0.958590000000     0.472410000000     0.994170000000    -0.556182   
O37      O      0.956210000000     0.530230000000     0.995430000000    -0.558202   
O38      O      0.054560000000     0.534290000000     0.996450000000    -0.554793   
O39      O      0.005870000000     0.533440000000     0.946620000000    -0.556001   
O40      O      0.004970000000     0.531090000000     0.045250000000    -0.55576    
O41      O      0.504680000000     0.447870000000     0.031550000000    -0.556893   
O42      O      0.507410000000     0.546410000000     0.030460000000    -0.556763   
O43      O      0.456870000000     0.498480000000     0.030040000000    -0.558401   
O44      O      0.555290000000     0.495730000000     0.031900000000    -0.554245   
O45      O      0.556490000000     0.495110000000     0.974280000000    -0.55678    
O46      O      0.457960000000     0.497780000000     0.972170000000    -0.557178   
O47      O      0.508510000000     0.545710000000     0.972600000000    -0.557916   
O48      O      0.505830000000     0.447240000000     0.973680000000    -0.557755   
S1       S      0.612350000000     0.482370000000     0.071380000000    -0.0261952  
S2       S      0.111120000000     0.575740000000     0.003270000000    -0.0259447  
S3       S      0.575220000000     0.894850000000     0.986370000000    -0.0262189  
S4       S      0.425700000000     0.100240000000     0.992130000000    -0.0261688  
S5       S      0.481340000000     0.075730000000     0.601710000000    -0.0244186  
S6       S      0.483830000000     0.926400000000     0.396290000000    -0.0262065  
S7       S      0.927800000000     0.510890000000     0.602280000000    -0.0258157  
S8       S      0.928380000000     0.477710000000     0.389150000000    -0.0257452  
S9       S      0.388230000000     0.073030000000     0.512070000000    -0.0243382  
S10      S      0.886030000000     0.996000000000     0.576430000000    -0.0243752  
S11      S      0.064530000000     0.602090000000     0.475190000000    -0.0268156  
S12      S      0.981200000000     0.101800000000     0.578050000000    -0.0242949  
V1       V      0.991530000000     0.998720000000     0.474900000000     1.39248    
V2       V      0.992910000000     0.995930000000     0.537130000000     1.40094    
V3       V      0.964220000000     0.498240000000     0.495310000000     1.40025    
V4       V      0.026420000000     0.496640000000     0.495180000000     1.39428    
V5       V      0.491140000000     0.970640000000     0.501020000000     1.3954     
V6       V      0.493460000000     0.032680000000     0.496530000000     1.40002    
V7       V      0.531380000000     0.999190000000     0.998880000000     1.39622    
V8       V      0.469250000000     0.994800000000     0.998190000000     1.39766    
V9       V      0.007970000000     0.472240000000     0.994520000000     1.39486    
V10      V      0.005300000000     0.534540000000     0.995980000000     1.3979     
V11      V      0.506030000000     0.497160000000     0.033270000000     1.39913    
V12      V      0.507260000000     0.496450000000     0.970890000000     1.39475    


