data_structure

_audit_creation_method RASPA-1.0
_audit_creation_date 2023-5-19
_audit_author_name 'Poobodin Mano'

_cell_length_a    38.5113
_cell_length_b    38.5158
_cell_length_c    38.5121
_cell_angle_alpha 90
_cell_angle_beta  90
_cell_angle_gamma 90
_cell_volume      57124.7

_symmetry_cell_setting          triclinic
_symmetry_space_group_name_Hall 'P 1'
_symmetry_space_group_name_H-M  'P 1'
_symmetry_Int_Tables_number     1

_symmetry_equiv_pos_as_xyz 'x,y,z'

loop_
_atom_site_label
_atom_site_type_symbol
_atom_site_fract_x
_atom_site_fract_y
_atom_site_fract_z
_atom_site_charge
C1       C      0.997490000000     0.066030000000     0.486990000000     0.482645   
C2       C      0.996500000000     0.933840000000     0.488070000000     0.481432   
C3       C      0.931060000000     0.999900000000     0.487790000000     0.481646   
C4       C      0.063280000000     0.000180000000     0.487280000000     0.482305   
C5       C      0.993100000000     0.501080000000     0.436300000000     0.481702   
C6       C      0.993640000000     0.498360000000     0.568490000000     0.481996   
C7       C      0.993280000000     0.565820000000     0.503410000000     0.479286   
C8       C      0.993830000000     0.433950000000     0.501170000000     0.479642   
C9       C      0.431270000000     0.007490000000     0.501320000000     0.479369   
C10      C      0.563150000000     0.007240000000     0.503670000000     0.479596   
C11      C      0.495640000000     0.007920000000     0.568650000000     0.482035   
C12      C      0.498770000000     0.007440000000     0.436520000000     0.482024   
C13      C      0.502370000000     0.999980000000     0.068510000000     0.480103   
C14      C      0.500420000000     0.000750000000     0.936670000000     0.479813   
C15      C      0.497990000000     0.066510000000     0.002880000000     0.48185    
C16      C      0.504980000000     0.934530000000     0.001980000000     0.48216    
C17      C      0.071020000000     0.491840000000     0.002590000000     0.482254   
C18      C      0.938840000000     0.491590000000     0.002500000000     0.481983   
C19      C      0.004800000000     0.492860000000     0.068270000000     0.479676   
C20      C      0.005070000000     0.491190000000     0.936390000000     0.479685   
C21      C      0.504230000000     0.434630000000     0.003850000000     0.479342   
C22      C      0.505230000000     0.566460000000     0.003390000000     0.47957    
C23      C      0.438920000000     0.501110000000     0.003740000000     0.479727   
C24      C      0.570760000000     0.500240000000     0.003560000000     0.479515   
C25      C      0.846750000000     0.463450000000     0.006290000000    -0.110121   
C26      C      0.624480000000     0.500300000000     0.972810000000     0.0769923  
C27      C      0.624400000000     0.500350000000     0.034370000000     0.0770701  
C28      C      0.660750000000     0.500270000000     0.972400000000    -0.0974902  
C29      C      0.736990000000     0.519720000000     0.980230000000    -0.0363708  
C30      C      0.773290000000     0.518660000000     0.980160000000    -0.0346924  
C31      C      0.717870000000     0.499410000000     0.003790000000    -0.00810144 
C32      C      0.660640000000     0.500250000000     0.034890000000    -0.0977682  
C33      C      0.791240000000     0.497150000000     0.003560000000    -0.0108933  
C34      C      0.849860000000     0.525240000000     0.999580000000    -0.100662   
C35      C      0.772110000000     0.477030000000     0.027250000000    -0.0348005  
C36      C      0.886010000000     0.522940000000     0.999600000000     0.0765367  
C37      C      0.883090000000     0.461630000000     0.006230000000     0.108232   
C38      C      0.735870000000     0.478150000000     0.027380000000    -0.0364279  
C39      C      0.679300000000     0.500130000000     0.003680000000     0.0508383  
C40      C      0.829780000000     0.495310000000     0.003060000000     0.0567743  
C41      C      0.163250000000     0.464050000000     0.005460000000    -0.110231   
C42      C      0.385360000000     0.501240000000     0.034680000000     0.0770866  
C43      C      0.385140000000     0.501920000000     0.973120000000     0.0771294  
C44      C      0.349120000000     0.501200000000     0.035280000000    -0.0979454  
C45      C      0.273970000000     0.478820000000     0.027360000000    -0.0363315  
C46      C      0.237740000000     0.477530000000     0.027190000000    -0.0348834  
C47      C      0.291860000000     0.500690000000     0.004270000000    -0.00822385 
C48      C      0.348880000000     0.502010000000     0.972790000000    -0.0976766  
C49      C      0.218540000000     0.498130000000     0.003970000000    -0.0110072  
C50      C      0.159810000000     0.526020000000     0.000860000000    -0.101022   
C51      C      0.236390000000     0.520280000000     0.981110000000    -0.0347629  
C52      C      0.123680000000     0.523520000000     0.000730000000     0.0763806  
C53      C      0.126930000000     0.462030000000     0.005220000000     0.108306   
C54      C      0.272670000000     0.521480000000     0.981190000000    -0.0364137  
C55      C      0.330420000000     0.501490000000     0.004100000000     0.0509927  
C56      C      0.180040000000     0.496100000000     0.003380000000     0.0569802  
C57      C      0.537160000000     0.843740000000     0.998710000000    -0.110032   
C58      C      0.505150000000     0.620260000000     0.033940000000     0.0770311  
C59      C      0.505430000000     0.619970000000     0.972380000000     0.0772054  
C60      C      0.505120000000     0.656510000000     0.034230000000    -0.0977428  
C61      C      0.484550000000     0.732280000000     0.026050000000    -0.0364626  
C62      C      0.484670000000     0.768560000000     0.025830000000    -0.034787   
C63      C      0.505400000000     0.713510000000     0.002690000000    -0.00818274 
C64      C      0.505470000000     0.656210000000     0.971740000000    -0.0977921  
C65      C      0.505730000000     0.786890000000     0.002320000000    -0.0109326  
C66      C      0.475270000000     0.844260000000     0.005340000000    -0.101004   
C67      C      0.526570000000     0.768120000000     0.978950000000    -0.0347522  
C68      C      0.476000000000     0.880430000000     0.004980000000     0.0766918  
C69      C      0.537400000000     0.880130000000     0.998400000000     0.108254   
C70      C      0.526390000000     0.731860000000     0.979120000000    -0.0363224  
C71      C      0.505300000000     0.674950000000     0.002900000000     0.0509487  
C72      C      0.506040000000     0.825460000000     0.002190000000     0.0568646  
C73      C      0.466340000000     0.157610000000     0.001530000000    -0.109749   
C74      C      0.502570000000     0.380880000000     0.973250000000     0.0770523  
C75      C      0.503730000000     0.381050000000     0.034800000000     0.0769158  
C76      C      0.501500000000     0.344640000000     0.972910000000    -0.0975156  
C77      C      0.521400000000     0.268440000000     0.027270000000    -0.0364766  
C78      C      0.520470000000     0.232170000000     0.027210000000    -0.0348802  
C79      C      0.500440000000     0.287570000000     0.004310000000    -0.00813134 
C80      C      0.502810000000     0.344800000000     0.035380000000    -0.0976578  
C81      C      0.498470000000     0.214200000000     0.004290000000    -0.0108832  
C82      C      0.528410000000     0.156550000000     0.006000000000    -0.100956   
C83      C      0.477390000000     0.233330000000     0.981440000000    -0.0347296  
C84      C      0.527380000000     0.120400000000     0.005410000000     0.0768314  
C85      C      0.465800000000     0.121180000000     0.001030000000     0.10774    
C86      C      0.478410000000     0.269600000000     0.981410000000    -0.0362539  
C87      C      0.501600000000     0.326130000000     0.004200000000     0.0508316  
C88      C      0.497710000000     0.175630000000     0.004020000000     0.0568011  
C89      C      0.490610000000     0.036300000000     0.660540000000    -0.110113   
C90      C      0.530200000000     0.002070000000     0.882420000000     0.07686    
C91      C      0.468720000000     0.999170000000     0.883600000000     0.0773344  
C92      C      0.529960000000     0.002090000000     0.846140000000    -0.0976484  
C93      C      0.521660000000     0.982110000000     0.770090000000    -0.0364307  
C94      C      0.520940000000     0.982960000000     0.733800000000    -0.0348287  
C95      C      0.497520000000     0.001350000000     0.789590000000    -0.00803565 
C96      C      0.467550000000     0.999210000000     0.847370000000    -0.0977145  
C97      C      0.496160000000     0.003200000000     0.716220000000    -0.0108172  
C98      C      0.500310000000     0.974880000000     0.657740000000    -0.100858   
C99      C      0.471930000000     0.022290000000     0.735740000000    -0.0348044  
C100     C      0.499720000000     0.976910000000     0.621580000000     0.076668   
C101     C      0.490040000000     0.037840000000     0.624190000000     0.108266   
C102     C      0.472600000000     0.021370000000     0.771980000000    -0.0363767  
C103     C      0.498380000000     0.000750000000     0.828160000000     0.0509876  
C104     C      0.495780000000     0.004780000000     0.677670000000     0.0568775  
C105     C      0.503610000000     0.035140000000     0.344330000000    -0.110071   
C106     C      0.472300000000     0.997650000000     0.122520000000     0.0770907  
C107     C      0.533770000000     0.000790000000     0.121840000000     0.0771726  
C108     C      0.472240000000     0.997210000000     0.158770000000    -0.0977781  
C109     C      0.481350000000     0.977460000000     0.234600000000    -0.0363893  
C110     C      0.481030000000     0.978450000000     0.270880000000    -0.0347634  
C111     C      0.503960000000     0.998960000000     0.215620000000    -0.00800809 
C112     C      0.534640000000     0.000440000000     0.158100000000    -0.0976897  
C113     C      0.503250000000     0.001040000000     0.289000000000    -0.0107713  
C114     C      0.499400000000     0.973150000000     0.347740000000    -0.100765   
C115     C      0.526160000000     0.022210000000     0.270030000000    -0.0348505  
C116     C      0.498420000000     0.975680000000     0.383860000000     0.0765302  
C117     C      0.502560000000     0.037190000000     0.380640000000     0.108176   
C118     C      0.526520000000     0.021170000000     0.233780000000    -0.0363667  
C119     C      0.503640000000     0.998690000000     0.177040000000     0.0510676  
C120     C      0.502110000000     0.003070000000     0.327520000000     0.0568602  
C121     C      0.966420000000     0.492830000000     0.660840000000    -0.109881   
C122     C      0.004510000000     0.460110000000     0.882820000000     0.0769471  
C123     C      0.005720000000     0.521650000000     0.882580000000     0.0770057  
C124     C      0.004250000000     0.459540000000     0.846530000000    -0.097519   
C125     C      0.981840000000     0.468240000000     0.771110000000    -0.0363617  
C126     C      0.980260000000     0.469130000000     0.734870000000    -0.0349204  
C127     C      0.004050000000     0.490800000000     0.789260000000    -0.00806212 
C128     C      0.005640000000     0.522000000000     0.846340000000    -0.0978023  
C129     C      0.000980000000     0.492480000000     0.715940000000    -0.0107155  
C130     C      0.028410000000     0.496900000000     0.657080000000    -0.100848   
C131     C      0.023570000000     0.514690000000     0.734060000000    -0.0350046  
C132     C      0.025650000000     0.498280000000     0.621000000000     0.0764758  
C133     C      0.964140000000     0.494350000000     0.624540000000     0.107947   
C134     C      0.025030000000     0.513910000000     0.770310000000    -0.0365028  
C135     C      0.004810000000     0.490730000000     0.827840000000     0.0509496  
C136     C      0.998620000000     0.494030000000     0.677460000000     0.0566647  
C137     C      0.964950000000     0.503270000000     0.344150000000    -0.109898   
C138     C      0.004190000000     0.524660000000     0.121290000000     0.077169   
C139     C      0.004450000000     0.463130000000     0.122600000000     0.0767878  
C140     C      0.003440000000     0.525920000000     0.157500000000    -0.0977435  
C141     C      0.980070000000     0.520150000000     0.232410000000    -0.0364275  
C142     C      0.978590000000     0.521180000000     0.268630000000    -0.0348653  
C143     C      0.001610000000     0.496110000000     0.215360000000    -0.00794476 
C144     C      0.003750000000     0.463460000000     0.158890000000    -0.097388   
C145     C      0.998630000000     0.498200000000     0.288700000000    -0.0107573  
C146     C      0.026720000000     0.496360000000     0.347410000000    -0.100765   
C147     C      0.020260000000     0.474220000000     0.271680000000    -0.0348187  
C148     C      0.024460000000     0.497500000000     0.383540000000     0.0766682  
C149     C      0.963190000000     0.504410000000     0.380500000000     0.10816    
C150     C      0.021680000000     0.473140000000     0.235410000000    -0.036455   
C151     C      0.003070000000     0.495120000000     0.176800000000     0.0508578  
C152     C      0.996770000000     0.499190000000     0.327250000000     0.0567684  
C153     C      0.155550000000     0.004580000000     0.459550000000    -0.109542   
C154     C      0.377400000000     0.038000000000     0.499490000000     0.0767139  
C155     C      0.377760000000     0.976470000000     0.500920000000     0.0769602  
C156     C      0.341110000000     0.038200000000     0.498490000000    -0.0974668  
C157     C      0.266080000000     0.028810000000     0.475080000000    -0.036346   
C158     C      0.229840000000     0.027810000000     0.473260000000    -0.0348418  
C159     C      0.284150000000     0.006380000000     0.497490000000    -0.00802756 
C160     C      0.341530000000     0.975740000000     0.500100000000    -0.0977177  
C161     C      0.210830000000     0.004460000000     0.493920000000    -0.0107304  
C162     C      0.152060000000     0.000380000000     0.521540000000    -0.100824   
C163     C      0.228890000000     0.982270000000     0.516580000000    -0.0348988  
C164     C      0.115950000000     0.999410000000     0.518970000000     0.0767444  
C165     C      0.119200000000     0.003490000000     0.457450000000     0.107926   
C166     C      0.265130000000     0.983170000000     0.518300000000    -0.0365199  
C167     C      0.322720000000     0.006820000000     0.498800000000     0.0508186  
C168     C      0.172320000000     0.003120000000     0.491660000000     0.0567869  
C169     C      0.838670000000     0.997070000000     0.460620000000    -0.109921   
C170     C      0.617200000000     0.037500000000     0.502760000000     0.0767358  
C171     C      0.616480000000     0.975970000000     0.503680000000     0.0770781  
C172     C      0.653480000000     0.037500000000     0.501590000000    -0.0973544  
C173     C      0.730490000000     0.029100000000     0.517910000000    -0.0364752  
C174     C      0.766730000000     0.028240000000     0.515820000000    -0.0348037  
C175     C      0.710230000000     0.005330000000     0.498990000000    -0.00797937 
C176     C      0.652690000000     0.975040000000     0.502540000000    -0.0977368  
C177     C      0.783550000000     0.003650000000     0.494700000000    -0.0107663  
C178     C      0.842570000000     0.006770000000     0.521990000000    -0.100855   
C179     C      0.763280000000     0.979930000000     0.475770000000    -0.0347789  
C180     C      0.878660000000     0.005370000000     0.519430000000     0.0765932  
C181     C      0.874990000000     0.995630000000     0.458580000000     0.107976   
C182     C      0.727080000000     0.980770000000     0.477870000000    -0.0364574  
C183     C      0.671690000000     0.006010000000     0.501210000000     0.0507816  
C184     C      0.822090000000     0.002660000000     0.492400000000     0.0566413  
C185     C      0.990690000000     0.841380000000     0.461440000000    -0.109792   
C186     C      0.023960000000     0.619550000000     0.503110000000     0.076972   
C187     C      0.962410000000     0.619480000000     0.503340000000     0.0768312  
C188     C      0.024400000000     0.655800000000     0.502360000000    -0.0974973  
C189     C      0.017190000000     0.732440000000     0.519710000000    -0.0364838  
C190     C      0.017590000000     0.768680000000     0.517660000000    -0.0348152  
C191     C      0.993170000000     0.712980000000     0.500270000000    -0.00792737 
C192     C      0.961920000000     0.655750000000     0.502550000000    -0.0974167  
C193     C      0.994030000000     0.786320000000     0.496060000000    -0.0107571  
C194     C      0.999240000000     0.845380000000     0.522970000000    -0.100804   
C195     C      0.969880000000     0.766860000000     0.476790000000    -0.0348008  
C196     C      0.999580000000     0.881470000000     0.520100000000     0.0764314  
C197     C      0.991050000000     0.877720000000     0.459070000000     0.10762    
C198     C      0.969440000000     0.730640000000     0.478880000000    -0.0364531  
C199     C      0.993150000000     0.674390000000     0.501910000000     0.0507423  
C200     C      0.994740000000     0.824850000000     0.493470000000     0.0565519  
C201     C      0.999830000000     0.158150000000     0.458750000000    -0.109815   
C202     C      0.024990000000     0.380550000000     0.499560000000     0.0771865  
C203     C      0.963440000000     0.380040000000     0.500090000000     0.0771045  
C204     C      0.025760000000     0.344330000000     0.498300000000    -0.0978113  
C205     C      0.018640000000     0.269650000000     0.474250000000    -0.0362597  
C206     C      0.019030000000     0.233420000000     0.472490000000    -0.0348241  
C207     C      0.995070000000     0.286930000000     0.496110000000    -0.00804524 
C208     C      0.963270000000     0.343780000000     0.498910000000    -0.0975861  
C209     C      0.995900000000     0.213600000000     0.492600000000    -0.0107172  
C210     C      0.993520000000     0.154930000000     0.520590000000    -0.100818   
C211     C      0.972370000000     0.230860000000     0.514530000000    -0.0348359  
C212     C      0.994250000000     0.118810000000     0.518310000000     0.0767921  
C213     C      0.000540000000     0.121800000000     0.456960000000     0.10832    
C214     C      0.971910000000     0.267120000000     0.516230000000    -0.0364272  
C215     C      0.994680000000     0.325470000000     0.497880000000     0.0510311  
C216     C      0.996320000000     0.175070000000     0.490630000000     0.0569252  
H1       H      0.611070000000     0.500480000000     0.059170000000     0.0215171  
H2       H      0.900120000000     0.547150000000     0.996830000000     0.0223064  
H3       H      0.721930000000     0.461940000000     0.045640000000     0.0363173  
H4       H      0.787280000000     0.534280000000     0.961420000000     0.035912   
H5       H      0.837750000000     0.550530000000     0.997350000000     0.0524473  
H6       H      0.723910000000     0.536630000000     0.961970000000     0.0362788  
H7       H      0.831670000000     0.439790000000     0.008660000000     0.0574276  
H8       H      0.673930000000     0.500600000000     0.059680000000     0.0516946  
H9       H      0.674140000000     0.499760000000     0.947670000000     0.0517819  
H10      H      0.785170000000     0.460490000000     0.045880000000     0.0358396  
H11      H      0.611210000000     0.500210000000     0.947990000000     0.0214949  
H12      H      0.905080000000     0.413190000000     0.046570000000     0.034819   
H13      H      0.398360000000     0.502100000000     0.948270000000     0.0214423  
H14      H      0.109460000000     0.547740000000     0.998810000000     0.0224144  
H15      H      0.285700000000     0.538850000000     0.963320000000     0.0362271  
H16      H      0.224730000000     0.460480000000     0.045380000000     0.0364104  
H17      H      0.171800000000     0.551430000000     0.999490000000     0.0525792  
H18      H      0.287990000000     0.462240000000     0.045240000000     0.0364366  
H19      H      0.178480000000     0.440410000000     0.006980000000     0.0573843  
H20      H      0.335430000000     0.501850000000     0.948080000000     0.0517418  
H21      H      0.335870000000     0.501230000000     0.060080000000     0.0518417  
H22      H      0.222320000000     0.536290000000     0.962750000000     0.0357045  
H23      H      0.398750000000     0.501010000000     0.059440000000     0.0215285  
H24      H      0.105370000000     0.405960000000     0.976070000000     0.0352944  
H25      H      0.505450000000     0.606560000000     0.947630000000     0.0214124  
H26      H      0.451180000000     0.893460000000     0.007590000000     0.0223475  
H27      H      0.543000000000     0.718180000000     0.961020000000     0.0362287  
H28      H      0.468560000000     0.782270000000     0.044360000000     0.035881   
H29      H      0.450500000000     0.831120000000     0.007650000000     0.0524473  
H30      H      0.467830000000     0.718930000000     0.044290000000     0.0362849  
H31      H      0.561440000000     0.829670000000     0.996480000000     0.0573911  
H32      H      0.505170000000     0.669430000000     0.946920000000     0.0516641  
H33      H      0.505420000000     0.669970000000     0.058930000000     0.0517923  
H34      H      0.542800000000     0.781470000000     0.960270000000     0.0357443  
H35      H      0.505130000000     0.607070000000     0.058810000000     0.0215391  
H36      H      0.584700000000     0.903920000000     0.957740000000     0.0346583  
H37      H      0.504470000000     0.394410000000     0.059560000000     0.0214686  
H38      H      0.552190000000     0.107200000000     0.007050000000     0.022475   
H39      H      0.461690000000     0.283590000000     0.963640000000     0.0364715  
H40      H      0.536800000000     0.218180000000     0.045340000000     0.0357967  
H41      H      0.553350000000     0.169480000000     0.007520000000     0.0525927  
H42      H      0.538870000000     0.281490000000     0.045020000000     0.0362876  
H43      H      0.442120000000     0.171910000000     0.000230000000     0.0571978  
H44      H      0.502550000000     0.331530000000     0.060180000000     0.051708   
H45      H      0.501030000000     0.331220000000     0.948190000000     0.051845   
H46      H      0.460400000000     0.220250000000     0.963240000000     0.0364081  
H47      H      0.502520000000     0.394100000000     0.948400000000     0.0215806  
H48      H      0.410540000000     0.096510000000     0.029220000000     0.0351426  
H49      H      0.444190000000     0.997900000000     0.897360000000     0.0219967  
H50      H      0.503600000000     0.952800000000     0.607570000000     0.0220347  
H51      H      0.453850000000     0.036760000000     0.786210000000     0.0364624  
H52      H      0.540120000000     0.968180000000     0.719510000000     0.0359077  
H53      H      0.503950000000     0.949820000000     0.669980000000     0.0523989  
H54      H      0.540960000000     0.966140000000     0.782870000000     0.0361329  
H55      H      0.487120000000     0.059910000000     0.675470000000     0.0574826  
H56      H      0.442570000000     0.997680000000     0.834530000000     0.0518384  
H57      H      0.554400000000     0.003720000000     0.832320000000     0.0517579  
H58      H      0.452260000000     0.037830000000     0.722980000000     0.0358278  
H59      H      0.555220000000     0.003310000000     0.895260000000     0.0214048  
H60      H      0.445700000000     0.082800000000     0.602530000000     0.0348539  
H61      H      0.558400000000     0.002110000000     0.108260000000     0.0218753  
H62      H      0.496350000000     0.951460000000     0.398060000000     0.0222794  
H63      H      0.544040000000     0.038280000000     0.219960000000     0.0362965  
H64      H      0.462910000000     0.961990000000     0.284720000000     0.0359307  
H65      H      0.498490000000     0.947710000000     0.335770000000     0.0524111  
H66      H      0.463920000000     0.959770000000     0.221400000000     0.0362843  
H67      H      0.505270000000     0.058790000000     0.329140000000     0.0574344  
H68      H      0.559530000000     0.001210000000     0.171170000000     0.0518577  
H69      H      0.447630000000     0.996310000000     0.172350000000     0.051816   
H70      H      0.543900000000     0.039590000000     0.283220000000     0.0358754  
H71      H      0.447360000000     0.996650000000     0.109500000000     0.0214634  
H72      H      0.539740000000     0.087790000000     0.403350000000     0.0348259  
H73      H      0.006180000000     0.546510000000     0.895760000000     0.0214724  
H74      H      0.049810000000     0.500400000000     0.606690000000     0.0223341  
H75      H      0.042680000000     0.531370000000     0.783520000000     0.0361601  
H76      H      0.962870000000     0.451410000000     0.721640000000     0.0364322  
H77      H      0.053920000000     0.497620000000     0.668890000000     0.052462   
H78      H      0.965140000000     0.450330000000     0.784950000000     0.0365889  
H79      H      0.942870000000     0.491090000000     0.676190000000     0.0572811  
H80      H      0.005620000000     0.546730000000     0.832940000000     0.0517063  
H81      H      0.003960000000     0.434760000000     0.833230000000     0.0519094  
H82      H      0.039670000000     0.533140000000     0.720240000000     0.0357202  
H83      H      0.004120000000     0.435370000000     0.896240000000     0.0218985  
H84      H      0.908380000000     0.525080000000     0.604420000000     0.0351183  
H85      H      0.004700000000     0.438060000000     0.109810000000     0.0217707  
H86      H      0.048680000000     0.495000000000     0.397680000000     0.0222468  
H87      H      0.038790000000     0.454530000000     0.223080000000     0.0363789  
H88      H      0.961950000000     0.540220000000     0.280930000000     0.0362937  
H89      H      0.051990000000     0.493640000000     0.335370000000     0.0525336  
H90      H      0.964000000000     0.537970000000     0.217750000000     0.0363775  
H91      H      0.941280000000     0.505360000000     0.329050000000     0.0572229  
H92      H      0.003140000000     0.439010000000     0.172780000000     0.0517295  
H93      H      0.003450000000     0.550980000000     0.170260000000     0.05185    
H94      H      0.035800000000     0.455970000000     0.286400000000     0.0358222  
H95      H      0.004440000000     0.549190000000     0.107490000000     0.0216561  
H96      H      0.905500000000     0.480050000000     0.403670000000     0.0352437  
H97      H      0.391190000000     0.951750000000     0.501740000000     0.0215717  
H98      H      0.101750000000     0.997350000000     0.543200000000     0.0223227  
H99      H      0.278260000000     0.965800000000     0.536090000000     0.0362233  
H100     H      0.216670000000     0.045500000000     0.455810000000     0.0366104  
H101     H      0.163980000000     0.999480000000     0.547000000000     0.0525043  
H102     H      0.279970000000     0.046780000000     0.458500000000     0.0366702  
H103     H      0.170800000000     0.006270000000     0.435930000000     0.0574046  
H104     H      0.328390000000     0.950880000000     0.499930000000     0.0517778  
H105     H      0.327570000000     0.062840000000     0.497880000000     0.0518428  
H106     H      0.215030000000     0.963820000000     0.532650000000     0.0357403  
H107     H      0.390560000000     0.062880000000     0.499290000000     0.0218243  
H108     H      0.098250000000     0.973470000000     0.401610000000     0.0360419  
H109     H      0.602930000000     0.951320000000     0.504560000000     0.0214675  
H110     H      0.893070000000     0.008950000000     0.543350000000     0.0220646  
H111     H      0.712280000000     0.962340000000     0.462640000000     0.0362489  
H112     H      0.781580000000     0.047070000000     0.530500000000     0.0358437  
H113     H      0.830810000000     0.010640000000     0.547240000000     0.0523996  
H114     H      0.718350000000     0.048140000000     0.534670000000     0.0363058  
H115     H      0.823330000000     0.993870000000     0.437230000000     0.0572148  
H116     H      0.665680000000     0.950100000000     0.502910000000     0.0516001  
H117     H      0.667100000000     0.062070000000     0.500280000000     0.0517254  
H118     H      0.775390000000     0.960400000000     0.459550000000     0.0356152  
H119     H      0.604160000000     0.062450000000     0.502640000000     0.0217732  
H120     H      0.895160000000     0.950700000000     0.413500000000     0.0335434  
H121     H      0.937620000000     0.606150000000     0.503750000000     0.0218485  
H122     H      0.003280000000     0.895900000000     0.543990000000     0.0221523  
H123     H      0.950830000000     0.716450000000     0.463300000000     0.0364302  
H124     H      0.036700000000     0.782860000000     0.532640000000     0.0357462  
H125     H      0.002060000000     0.833680000000     0.548390000000     0.0523302  
H126     H      0.035590000000     0.719670000000     0.536720000000     0.0360885  
H127     H      0.987380000000     0.825990000000     0.438100000000     0.0572264  
H128     H      0.937150000000     0.669060000000     0.502710000000     0.0516704  
H129     H      0.049160000000     0.669110000000     0.501470000000     0.0517139  
H130     H      0.951100000000     0.779650000000     0.460220000000     0.0357025  
H131     H      0.048790000000     0.606280000000     0.503150000000     0.0215477  
H132     H      0.948720000000     0.899590000000     0.412300000000     0.033609   
H133     H      0.938530000000     0.393140000000     0.500650000000     0.021895   
H134     H      0.991870000000     0.104690000000     0.542550000000     0.0222609  
H135     H      0.953660000000     0.279630000000     0.533580000000     0.0364044  
H136     H      0.037730000000     0.220920000000     0.455610000000     0.0364694  
H137     H      0.991200000000     0.166970000000     0.545900000000     0.0525583  
H138     H      0.036590000000     0.284140000000     0.458160000000     0.0363821  
H139     H      0.001830000000     0.173270000000     0.435080000000     0.0574399  
H140     H      0.938630000000     0.330250000000     0.498250000000     0.0519001  
H141     H      0.050630000000     0.331220000000     0.498020000000     0.0518696  
H142     H      0.954010000000     0.216350000000     0.530130000000     0.0358328  
H143     H      0.049700000000     0.394040000000     0.499870000000     0.0215107  
H144     H      0.974910000000     0.098890000000     0.399710000000     0.0360789  
N1       N      0.902950000000     0.491570000000     0.002790000000    -0.210953   
N2       N      0.606410000000     0.500280000000     0.003570000000    -0.208602   
N3       N      0.106900000000     0.491970000000     0.002860000000    -0.211016   
N4       N      0.403280000000     0.501440000000     0.003830000000    -0.208714   
N5       N      0.506620000000     0.898690000000     0.001730000000    -0.211049   
N6       N      0.505290000000     0.602090000000     0.003240000000    -0.208745   
N7       N      0.496540000000     0.102370000000     0.003080000000    -0.210812   
N8       N      0.503570000000     0.398990000000     0.003970000000    -0.208552   
N9       N      0.495010000000     0.008000000000     0.604510000000    -0.2111     
N10      N      0.499800000000     0.000680000000     0.901030000000    -0.208588   
N11      N      0.499900000000     0.007250000000     0.400640000000    -0.210866   
N12      N      0.502830000000     0.999490000000     0.104150000000    -0.208593   
N13      N      0.993970000000     0.497050000000     0.604370000000    -0.210773   
N14      N      0.005120000000     0.490940000000     0.900740000000    -0.208454   
N15      N      0.993110000000     0.501160000000     0.400410000000    -0.210865   
N16      N      0.004530000000     0.493510000000     0.103910000000    -0.208511   
N17      N      0.099170000000     0.000950000000     0.487390000000    -0.210655   
N18      N      0.395620000000     0.007360000000     0.500600000000    -0.2084     
N19      N      0.895190000000     0.000170000000     0.488120000000    -0.211094   
N20      N      0.598800000000     0.006950000000     0.503520000000    -0.208485   
N21      N      0.995720000000     0.897970000000     0.488580000000    -0.210883   
N22      N      0.993210000000     0.601470000000     0.503400000000    -0.208358   
N23      N      0.997510000000     0.101910000000     0.486920000000    -0.210838   
N24      N      0.994070000000     0.398320000000     0.500320000000    -0.208535   
O1       O      0.997190000000     0.048950000000     0.458410000000    -0.555649   
O2       O      0.996820000000     0.950460000000     0.459210000000    -0.556083   
O3       O      0.947800000000     0.999800000000     0.458990000000    -0.556006   
O4       O      0.046310000000     0.999690000000     0.458630000000    -0.555251   
O5       O      0.046590000000     0.000100000000     0.516240000000    -0.55638    
O6       O      0.947940000000     0.000330000000     0.516630000000    -0.556635   
O7       O      0.997070000000     0.950850000000     0.516840000000    -0.55647    
O8       O      0.997380000000     0.049480000000     0.516030000000    -0.556545   
O9       O      0.964460000000     0.500650000000     0.453290000000    -0.556558   
O10      O      0.964870000000     0.498740000000     0.551740000000    -0.556691   
O11      O      0.964390000000     0.549070000000     0.503400000000    -0.556329   
O12      O      0.964800000000     0.450440000000     0.501590000000    -0.556368   
O13      O      0.022680000000     0.450750000000     0.501420000000    -0.557621   
O14      O      0.022270000000     0.549260000000     0.503090000000    -0.55749    
O15      O      0.022500000000     0.499100000000     0.551620000000    -0.55661    
O16      O      0.022110000000     0.500790000000     0.452940000000    -0.556331   
O17      O      0.447930000000     0.978580000000     0.501840000000    -0.558491   
O18      O      0.546370000000     0.978400000000     0.503570000000    -0.558655   
O19      O      0.496270000000     0.978890000000     0.552070000000    -0.556309   
O20      O      0.498100000000     0.978540000000     0.453340000000    -0.556074   
O21      O      0.498350000000     0.036170000000     0.453320000000    -0.557545   
O22      O      0.496210000000     0.036540000000     0.551660000000    -0.557117   
O23      O      0.546630000000     0.036270000000     0.503440000000    -0.555621   
O24      O      0.447910000000     0.036450000000     0.501440000000    -0.555798   
O25      O      0.531040000000     0.001630000000     0.051480000000    -0.55672    
O26      O      0.529590000000     0.002280000000     0.952860000000    -0.55702    
O27      O      0.527690000000     0.051180000000     0.002550000000    -0.558701   
O28      O      0.532800000000     0.952830000000     0.001780000000    -0.555962   
O29      O      0.475240000000     0.949780000000     0.002730000000    -0.558034   
O30      O      0.470120000000     0.048250000000     0.003260000000    -0.55492    
O31      O      0.471800000000     0.999220000000     0.953770000000    -0.557769   
O32      O      0.473240000000     0.998710000000     0.052260000000    -0.55853    
O33      O      0.054240000000     0.520770000000     0.002080000000    -0.556453   
O34      O      0.955500000000     0.520580000000     0.001860000000    -0.556134   
O35      O      0.004750000000     0.521520000000     0.051180000000    -0.558429   
O36      O      0.005030000000     0.520280000000     0.952740000000    -0.558739   
O37      O      0.005000000000     0.462410000000     0.953340000000    -0.555697   
O38      O      0.004940000000     0.463660000000     0.052060000000    -0.555867   
O39      O      0.955800000000     0.462950000000     0.002720000000    -0.557482   
O40      O      0.054160000000     0.463140000000     0.002760000000    -0.557755   
O41      O      0.504570000000     0.451370000000     0.032750000000    -0.557838   
O42      O      0.505140000000     0.549940000000     0.032410000000    -0.557866   
O43      O      0.455610000000     0.500950000000     0.032650000000    -0.558507   
O44      O      0.554140000000     0.500400000000     0.032520000000    -0.558449   
O45      O      0.554100000000     0.500100000000     0.974620000000    -0.557445   
O46      O      0.455500000000     0.500910000000     0.974750000000    -0.557553   
O47      O      0.505180000000     0.549720000000     0.974500000000    -0.558066   
O48      O      0.504330000000     0.451180000000     0.974850000000    -0.55777    
S1       S      0.900510000000     0.419480000000     0.011850000000    -0.0480874  
S2       S      0.109760000000     0.419540000000     0.008660000000    -0.0483983  
S3       S      0.578690000000     0.899390000000     0.992510000000    -0.0482533  
S4       S      0.424170000000     0.102230000000     0.996860000000    -0.048408   
S5       S      0.480880000000     0.079220000000     0.606450000000    -0.0482015  
S6       S      0.505540000000     0.079700000000     0.397840000000    -0.0479311  
S7       S      0.921500000000     0.492160000000     0.607550000000    -0.0484465  
S8       S      0.921230000000     0.511420000000     0.397870000000    -0.0486798  
S9       S      0.101960000000     0.006240000000     0.414960000000    -0.0460681  
S10      S      0.891990000000     0.985960000000     0.417000000000    -0.0484421  
S11      S      0.983650000000     0.894720000000     0.417040000000    -0.0482375  
S12      S      0.006620000000     0.104370000000     0.414890000000    -0.0461168  
V1       V      0.997040000000     0.999690000000     0.456550000000     1.40428    
V2       V      0.997270000000     0.000190000000     0.518740000000     1.38786    
V3       V      0.962360000000     0.499740000000     0.502530000000     1.39868    
V4       V      0.024690000000     0.500010000000     0.502270000000     1.39229    
V5       V      0.497150000000     0.976300000000     0.502720000000     1.39276    
V6       V      0.497270000000     0.038630000000     0.502470000000     1.40013    
V7       V      0.532560000000     0.002120000000     0.002140000000     1.39679    
V8       V      0.470320000000     0.998880000000     0.003050000000     1.39685    
V9       V      0.004880000000     0.523080000000     0.001920000000     1.39299    
V10      V      0.004980000000     0.460770000000     0.002730000000     1.39991    
V11      V      0.504880000000     0.500660000000     0.034870000000     1.39778    
V12      V      0.504790000000     0.500450000000     0.972380000000     1.39621    


