data_structure

_audit_creation_method RASPA-1.0
_audit_creation_date 2023-5-19
_audit_author_name 'Poobodin Mano'

_cell_length_a    21.6045
_cell_length_b    21.6045
_cell_length_c    21.6034
_cell_angle_alpha 90
_cell_angle_beta  90
_cell_angle_gamma 90
_cell_volume      10083.5

_symmetry_cell_setting          triclinic
_symmetry_space_group_name_Hall 'P 1'
_symmetry_space_group_name_H-M  'P 1'
_symmetry_Int_Tables_number     1

_symmetry_equiv_pos_as_xyz 'x,y,z'

loop_
_atom_site_label
_atom_site_type_symbol
_atom_site_fract_x
_atom_site_fract_y
_atom_site_fract_z
_atom_site_charge
C1       C      0.003770000000     0.120270000000     0.506210000000     0.425648   
C2       C      0.004170000000     0.886650000000     0.501180000000     0.42534    
C3       C      0.887200000000     0.003700000000     0.506210000000     0.425559   
C4       C      0.120820000000     0.003300000000     0.501180000000     0.425455   
C5       C      0.002940000000     0.386680000000     0.505850000000     0.424415   
C6       C      0.004150000000     0.620310000000     0.501760000000     0.42439    
C7       C      0.005870000000     0.501970000000     0.387010000000     0.424312   
C8       C      0.001130000000     0.505300000000     0.620600000000     0.424533   
C9       C      0.502170000000     0.006340000000     0.620590000000     0.424466   
C10      C      0.505500000000     0.001600000000     0.387000000000     0.424495   
C11      C      0.620800000000     0.004520000000     0.505840000000     0.424255   
C12      C      0.387160000000     0.003320000000     0.501750000000     0.424566   
C13      C      0.503800000000     0.120560000000     0.005280000000     0.425409   
C14      C      0.503800000000     0.886900000000     0.002270000000     0.425291   
C15      C      0.504510000000     0.001880000000     0.120610000000     0.425563   
C16      C      0.502910000000     0.005570000000     0.886950000000     0.425375   
C17      C      0.001900000000     0.504570000000     0.886960000000     0.425364   
C18      C      0.005600000000     0.502960000000     0.120620000000     0.42557    
C19      C      0.886920000000     0.503670000000     0.005290000000     0.425379   
C20      C      0.120570000000     0.503680000000     0.002280000000     0.425424   
C21      C      0.503700000000     0.386930000000     0.004500000000     0.424515   
C22      C      0.503700000000     0.620600000000     0.003050000000     0.424707   
C23      C      0.620550000000     0.503780000000     0.004500000000     0.424681   
C24      C      0.386880000000     0.503770000000     0.003050000000     0.424709   
C25      C      0.786180000000     0.463560000000     0.965960000000     0.00226448 
C26      C      0.818840000000     0.503600000000     0.005350000000    -0.106926   
C27      C      0.785980000000     0.543670000000     0.044540000000     0.00150764 
C28      C      0.721260000000     0.542910000000     0.045110000000     0.0014314  
C29      C      0.688620000000     0.503680000000     0.004880000000    -0.106859   
C30      C      0.721490000000     0.464380000000     0.964950000000     0.00216938 
C31      C      0.221280000000     0.463460000000     0.041510000000     0.00166671 
C32      C      0.188630000000     0.503600000000     0.002210000000    -0.107079   
C33      C      0.221480000000     0.543750000000     0.963110000000     0.0023318  
C34      C      0.286190000000     0.542990000000     0.962530000000     0.0020833  
C35      C      0.318820000000     0.503670000000     0.002670000000    -0.106758   
C36      C      0.285960000000     0.464290000000     0.042530000000     0.00149164 
C37      C      0.543980000000     0.786200000000     0.041540000000     0.00164703 
C38      C      0.503880000000     0.818840000000     0.002210000000    -0.106908   
C39      C      0.463750000000     0.786000000000     0.963080000000     0.00228154 
C40      C      0.464510000000     0.721280000000     0.962510000000     0.00219688 
C41      C      0.503800000000     0.688650000000     0.002670000000    -0.106844   
C42      C      0.543150000000     0.721510000000     0.042560000000     0.00160039 
C43      C      0.463790000000     0.221490000000     0.044510000000     0.00155413 
C44      C      0.503870000000     0.188640000000     0.005340000000    -0.107102   
C45      C      0.543930000000     0.221290000000     0.965960000000     0.00229525 
C46      C      0.543110000000     0.285980000000     0.964950000000     0.00203205 
C47      C      0.503790000000     0.318850000000     0.004880000000    -0.106716   
C48      C      0.464550000000     0.286210000000     0.045080000000     0.00131839 
C49      C      0.461670000000     0.967840000000     0.721430000000     0.00194002 
C50      C      0.501480000000     0.007370000000     0.688660000000    -0.106724   
C51      C      0.541480000000     0.046720000000     0.721400000000     0.000894989
C52      C      0.542660000000     0.045490000000     0.786120000000     0.00174842 
C53      C      0.502290000000     0.006490000000     0.818880000000    -0.107135   
C54      C      0.461290000000     0.968210000000     0.786110000000     0.00228515 
C55      C      0.464610000000     0.039820000000     0.286330000000     0.00127418 
C56      C      0.504940000000     0.000670000000     0.318920000000    -0.10666    
C57      C      0.545030000000     0.961570000000     0.285990000000     0.00139126 
C58      C      0.545690000000     0.962660000000     0.221230000000     0.0024664  
C59      C      0.504720000000     0.001230000000     0.188690000000    -0.107374   
C60      C      0.463740000000     0.039310000000     0.221690000000     0.00167412 
C61      C      0.961990000000     0.464810000000     0.786130000000     0.00247018 
C62      C      0.000980000000     0.505190000000     0.818890000000    -0.10714    
C63      C      0.039250000000     0.546190000000     0.786120000000     0.00159585 
C64      C      0.039610000000     0.545820000000     0.721440000000     0.00130545 
C65      C      0.000100000000     0.506000000000     0.688660000000    -0.106758   
C66      C      0.960760000000     0.465980000000     0.721410000000     0.00155386 
C67      C      0.045910000000     0.462440000000     0.286000000000     0.000696801
C68      C      0.006800000000     0.502530000000     0.318940000000    -0.10666    
C69      C      0.967650000000     0.542850000000     0.286340000000     0.00197246 
C70      C      0.968160000000     0.543720000000     0.221700000000     0.00236838 
C71      C      0.006240000000     0.502750000000     0.188700000000    -0.107353   
C72      C      0.044830000000     0.461780000000     0.221240000000     0.00171395 
C73      C      0.221700000000     0.042690000000     0.460930000000     0.0010784  
C74      C      0.188880000000     0.002590000000     0.500120000000    -0.10712    
C75      C      0.221570000000     0.962410000000     0.539340000000     0.00228554 
C76      C      0.286240000000     0.961780000000     0.538890000000     0.00202565 
C77      C      0.319090000000     0.002870000000     0.500810000000    -0.106901   
C78      C      0.286430000000     0.043600000000     0.462080000000     0.00154229 
C79      C      0.786530000000     0.044050000000     0.467200000000     0.0016438  
C80      C      0.819130000000     0.004640000000     0.507290000000    -0.1075     
C81      C      0.786210000000     0.965610000000     0.547440000000     0.00194269 
C82      C      0.721470000000     0.964950000000     0.546420000000     0.00148385 
C83      C      0.688890000000     0.004870000000     0.506790000000    -0.106958   
C84      C      0.721870000000     0.044930000000     0.467720000000     0.00056469 
C85      C      0.964790000000     0.785780000000     0.460930000000     0.00177018 
C86      C      0.004890000000     0.818590000000     0.500120000000    -0.106968   
C87      C      0.045060000000     0.785910000000     0.539350000000     0.00158258 
C88      C      0.045680000000     0.721240000000     0.538900000000     0.00139635 
C89      C      0.004600000000     0.688380000000     0.500810000000    -0.106831   
C90      C      0.963880000000     0.721040000000     0.462080000000     0.00225772 
C91      C      0.963470000000     0.220940000000     0.467160000000     0.0023707  
C92      C      0.002830000000     0.188340000000     0.507300000000    -0.107658   
C93      C      0.041810000000     0.221270000000     0.547500000000     0.00124081 
C94      C      0.042470000000     0.286000000000     0.546470000000     0.000772445
C95      C      0.002600000000     0.318580000000     0.506800000000    -0.106969   
C96      C      0.962590000000     0.285610000000     0.467680000000     0.00118807 
H1       H      0.810720000000     0.432490000000     0.935160000000     0.0346396  
H2       H      0.810370000000     0.574770000000     0.075420000000     0.0343547  
H3       H      0.696700000000     0.573760000000     0.076110000000     0.0343321  
H4       H      0.697120000000     0.433600000000     0.933730000000     0.0344966  
H5       H      0.196730000000     0.432320000000     0.072230000000     0.034308   
H6       H      0.197080000000     0.574920000000     0.932310000000     0.0341788  
H7       H      0.310760000000     0.573890000000     0.931600000000     0.0341927  
H8       H      0.310340000000     0.433440000000     0.073670000000     0.0342764  
H9       H      0.575090000000     0.810750000000     0.072280000000     0.0344505  
H10      H      0.432600000000     0.810400000000     0.932250000000     0.0342553  
H11      H      0.433630000000     0.696710000000     0.931550000000     0.0341825  
H12      H      0.573980000000     0.697140000000     0.073730000000     0.0343206  
H13      H      0.432670000000     0.197100000000     0.075380000000     0.0342015  
H14      H      0.575010000000     0.196750000000     0.935190000000     0.0345613  
H15      H      0.573910000000     0.310350000000     0.933760000000     0.0345123  
H16      H      0.433690000000     0.310770000000     0.076070000000     0.0342954  
H17      H      0.430360000000     0.937220000000     0.696990000000     0.0344984  
H18      H      0.572800000000     0.077300000000     0.696910000000     0.0355445  
H19      H      0.574430000000     0.075590000000     0.810600000000     0.0346237  
H20      H      0.429920000000     0.937640000000     0.810550000000     0.0345254  
H21      H      0.433150000000     0.070180000000     0.310920000000     0.0346955  
H22      H      0.576680000000     0.931220000000     0.310330000000     0.0353284  
H23      H      0.577470000000     0.932710000000     0.196560000000     0.0344746  
H24      H      0.431900000000     0.069550000000     0.197440000000     0.0345468  
H25      H      0.931900000000     0.433020000000     0.810620000000     0.0346799  
H26      H      0.069810000000     0.577570000000     0.810560000000     0.0344762  
H27      H      0.070230000000     0.577130000000     0.697000000000     0.0344821  
H28      H      0.930180000000     0.434660000000     0.696930000000     0.035587   
H29      H      0.076260000000     0.430800000000     0.310340000000     0.0352452  
H30      H      0.937280000000     0.574310000000     0.310930000000     0.0347514  
H31      H      0.937920000000     0.575550000000     0.197450000000     0.0346699  
H32      H      0.074780000000     0.430010000000     0.196570000000     0.0343614  
H33      H      0.197280000000     0.074240000000     0.430550000000     0.035115   
H34      H      0.197060000000     0.930980000000     0.569790000000     0.0343255  
H35      H      0.310590000000     0.930140000000     0.569240000000     0.0343932  
H36      H      0.311000000000     0.075460000000     0.432140000000     0.0343586  
H37      H      0.811110000000     0.074680000000     0.436010000000     0.0348123  
H38      H      0.810530000000     0.934680000000     0.578530000000     0.0359084  
H39      H      0.696860000000     0.933870000000     0.577130000000     0.0362913  
H40      H      0.697620000000     0.075940000000     0.436640000000     0.0360136  
H41      H      0.933240000000     0.810190000000     0.430540000000     0.0353242  
H42      H      0.076490000000     0.810410000000     0.569800000000     0.0343564  
H43      H      0.077320000000     0.696880000000     0.569260000000     0.0343982  
H44      H      0.932010000000     0.696480000000     0.432140000000     0.0344196  
H45      H      0.932870000000     0.196370000000     0.435920000000     0.0347946  
H46      H      0.072710000000     0.196940000000     0.578620000000     0.0356864  
H47      H      0.073510000000     0.310620000000     0.577220000000     0.0361718  
H48      H      0.931620000000     0.309860000000     0.436560000000     0.0360352  
O1       O      0.002200000000     0.092470000000     0.453810000000    -0.544198   
O2       O      0.002270000000     0.916800000000     0.450000000000    -0.540538   
O3       O      0.915000000000     0.005270000000     0.453810000000    -0.54364    
O4       O      0.090680000000     0.005200000000     0.450000000000    -0.540934   
O5       O      0.093020000000     0.001670000000     0.553590000000    -0.543971   
O6       O      0.917350000000     0.001750000000     0.557390000000    -0.540692   
O7       O      0.005800000000     0.914450000000     0.553590000000    -0.543406   
O8       O      0.005720000000     0.090120000000     0.557390000000    -0.541145   
O9       O      0.951380000000     0.415900000000     0.501970000000    -0.542038   
O10      O      0.952140000000     0.591630000000     0.502250000000    -0.541389   
O11      O      0.953540000000     0.504460000000     0.414870000000    -0.543508   
O12      O      0.949930000000     0.503120000000     0.590520000000    -0.540452   
O13      O      0.053510000000     0.506610000000     0.592730000000    -0.543191   
O14      O      0.057090000000     0.499940000000     0.417110000000    -0.540154   
O15      O      0.055820000000     0.591040000000     0.502480000000    -0.542071   
O16      O      0.054820000000     0.415450000000     0.508530000000    -0.542155   
O17      O      0.500860000000     0.953960000000     0.592710000000    -0.542872   
O18      O      0.507530000000     0.950390000000     0.417090000000    -0.539824   
O19      O      0.592020000000     0.952640000000     0.508520000000    -0.541702   
O20      O      0.416430000000     0.951650000000     0.502470000000    -0.541759   
O21      O      0.415840000000     0.055320000000     0.502240000000    -0.5419     
O22      O      0.591580000000     0.056090000000     0.501960000000    -0.54223    
O23      O      0.503010000000     0.053930000000     0.414860000000    -0.54393    
O24      O      0.504360000000     0.057540000000     0.590510000000    -0.540845   
O25      O      0.451950000000     0.091590000000     0.005760000000    -0.542165   
O26      O      0.451940000000     0.915860000000     0.002470000000    -0.541704   
O27      O      0.452520000000     0.002810000000     0.091920000000    -0.542962   
O28      O      0.451300000000     0.004630000000     0.916300000000    -0.54252    
O29      O      0.554970000000     0.005430000000     0.915550000000    -0.541303   
O30      O      0.556180000000     0.002030000000     0.091330000000    -0.541924   
O31      O      0.555620000000     0.915900000000     0.002680000000    -0.5419     
O32      O      0.555610000000     0.091570000000     0.004200000000    -0.542484   
O33      O      0.002040000000     0.452510000000     0.915560000000    -0.541396   
O34      O      0.005450000000     0.451290000000     0.091340000000    -0.541894   
O35      O      0.915910000000     0.451860000000     0.004210000000    -0.542111   
O36      O      0.091580000000     0.451850000000     0.002690000000    -0.542341   
O37      O      0.091620000000     0.555530000000     0.002480000000    -0.542156   
O38      O      0.915880000000     0.555520000000     0.005770000000    -0.541647   
O39      O      0.004670000000     0.554950000000     0.091940000000    -0.542919   
O40      O      0.002840000000     0.556180000000     0.916310000000    -0.54238    
O41      O      0.504430000000     0.415600000000     0.952490000000    -0.541607   
O42      O      0.503590000000     0.591320000000     0.951390000000    -0.541713   
O43      O      0.591870000000     0.503050000000     0.952500000000    -0.541717   
O44      O      0.416150000000     0.503890000000     0.951380000000    -0.541647   
O45      O      0.415540000000     0.503650000000     0.055060000000    -0.542101   
O46      O      0.591260000000     0.504500000000     0.056160000000    -0.542065   
O47      O      0.503820000000     0.591930000000     0.055070000000    -0.542002   
O48      O      0.502970000000     0.416210000000     0.056160000000    -0.542066   
V1       V      0.002560000000     0.004910000000     0.447720000000     1.38568    
V2       V      0.005460000000     0.002010000000     0.559670000000     1.38603    
V3       V      0.947560000000     0.503770000000     0.502420000000     1.38791    
V4       V      0.059500000000     0.503220000000     0.505190000000     1.38531    
V5       V      0.504250000000     0.947960000000     0.505180000000     1.38695    
V6       V      0.503700000000     0.059910000000     0.502410000000     1.38636    
V7       V      0.447760000000     0.003720000000     0.004140000000     1.38675    
V8       V      0.559770000000     0.003730000000     0.003410000000     1.38475    
V9       V      0.003740000000     0.447700000000     0.003420000000     1.38463    
V10      V      0.003750000000     0.559710000000     0.004150000000     1.38662    
V11      V      0.504040000000     0.503440000000     0.947770000000     1.38776    
V12      V      0.503370000000     0.504100000000     0.059790000000     1.3862     


