data_structure

_audit_creation_method RASPA-1.0
_audit_creation_date 2023-5-22
_audit_author_name 'Poobodin Mano'

_cell_length_a    30.2827
_cell_length_b    30.2827
_cell_length_c    30.3357
_cell_angle_alpha 90
_cell_angle_beta  89.9998
_cell_angle_gamma 89.9998
_cell_volume      27819.1

_symmetry_cell_setting          triclinic
_symmetry_space_group_name_Hall 'P 1'
_symmetry_space_group_name_H-M  'P 1'
_symmetry_Int_Tables_number     1

_symmetry_equiv_pos_as_xyz 'x,y,z'

loop_
_atom_site_label
_atom_site_type_symbol
_atom_site_fract_x
_atom_site_fract_y
_atom_site_fract_z
_atom_site_charge
C1       C      0.992470000000     0.075850000000     0.991600000000     0.434396   
C2       C      0.992410000000     0.908870000000     0.991600000000     0.434391   
C3       C      0.075930000000     0.992330000000     0.991580000000     0.434351   
C4       C      0.908940000000     0.992390000000     0.991620000000     0.434262   
C5       C      0.992500000000     0.076010000000     0.491640000000     0.434468   
C6       C      0.992410000000     0.909030000000     0.491640000000     0.434249   
C7       C      0.908960000000     0.992570000000     0.491630000000     0.434225   
C8       C      0.075950000000     0.992470000000     0.491660000000     0.434405   
C9       C      0.992470000000     0.492360000000     0.074930000000     0.434253   
C10      C      0.992450000000     0.492360000000     0.908210000000     0.434369   
C11      C      0.992440000000     0.575860000000     0.991570000000     0.434474   
C12      C      0.992470000000     0.408860000000     0.991570000000     0.434498   
C13      C      0.992470000000     0.492510000000     0.408210000000     0.434274   
C14      C      0.992460000000     0.492520000000     0.574930000000     0.434265   
C15      C      0.992440000000     0.576020000000     0.491570000000     0.43427    
C16      C      0.992490000000     0.409020000000     0.491580000000     0.434472   
C17      C      0.492400000000     0.992440000000     0.074920000000     0.434283   
C18      C      0.492480000000     0.992450000000     0.908200000000     0.434287   
C19      C      0.575940000000     0.992460000000     0.991600000000     0.43426    
C20      C      0.408940000000     0.992430000000     0.991520000000     0.434471   
C21      C      0.492410000000     0.992480000000     0.408200000000     0.43434    
C22      C      0.492490000000     0.992480000000     0.574920000000     0.434317   
C23      C      0.408950000000     0.992460000000     0.491600000000     0.434553   
C24      C      0.575950000000     0.992510000000     0.491530000000     0.434481   
C25      C      0.504850000000     0.030470000000     0.789830000000    -0.0738293  
C26      C      0.492520000000     0.992460000000     0.766130000000     0.024941   
C27      C      0.480180000000     0.954440000000     0.789820000000    -0.0739675  
C28      C      0.480470000000     0.954350000000     0.835890000000     0.0364795  
C29      C      0.492500000000     0.992450000000     0.859420000000    -0.134326   
C30      C      0.504540000000     0.030550000000     0.835900000000     0.0366057  
C31      C      0.492520000000     0.992470000000     0.716990000000     0.0249369  
C32      C      0.480160000000     0.030480000000     0.693300000000    -0.0738279  
C33      C      0.480440000000     0.030570000000     0.647230000000     0.0365932  
C34      C      0.492510000000     0.992480000000     0.623700000000    -0.134329   
C35      C      0.504580000000     0.954390000000     0.647220000000     0.0364777  
C36      C      0.504880000000     0.954470000000     0.693290000000    -0.0739437  
C37      C      0.504700000000     0.030490000000     0.289820000000    -0.0738761  
C38      C      0.492370000000     0.992470000000     0.266130000000     0.0249543  
C39      C      0.480050000000     0.954450000000     0.289830000000    -0.0739732  
C40      C      0.480360000000     0.954380000000     0.335900000000     0.0365284  
C41      C      0.492390000000     0.992480000000     0.359420000000    -0.134376   
C42      C      0.504410000000     0.030580000000     0.335880000000     0.0366557  
C43      C      0.492360000000     0.992460000000     0.216990000000     0.0249445  
C44      C      0.479990000000     0.030460000000     0.193290000000    -0.0738812  
C45      C      0.480300000000     0.030530000000     0.147220000000     0.0366731  
C46      C      0.492380000000     0.992450000000     0.123700000000    -0.134327   
C47      C      0.504450000000     0.954360000000     0.147230000000     0.0364639  
C48      C      0.504740000000     0.954450000000     0.193300000000    -0.0739411  
C49      C      0.030460000000     0.480080000000     0.789830000000    -0.0738752  
C50      C      0.992450000000     0.492430000000     0.766140000000     0.0249439  
C51      C      0.954430000000     0.504740000000     0.789840000000    -0.0739281  
C52      C      0.954340000000     0.504420000000     0.835910000000     0.0364561  
C53      C      0.992450000000     0.492380000000     0.859430000000    -0.134358   
C54      C      0.030540000000     0.480350000000     0.835900000000     0.0366545  
C55      C      0.992450000000     0.492460000000     0.717000000000     0.024938   
C56      C      0.030450000000     0.504840000000     0.693310000000    -0.0738352  
C57      C      0.030540000000     0.504560000000     0.647240000000     0.0365929  
C58      C      0.992450000000     0.492500000000     0.623710000000    -0.134325   
C59      C      0.954360000000     0.480420000000     0.647230000000     0.0364839  
C60      C      0.954440000000     0.480100000000     0.693300000000    -0.0739734  
C61      C      0.954480000000     0.480040000000     0.193310000000    -0.073949   
C62      C      0.992480000000     0.492420000000     0.217000000000     0.0249508  
C63      C      0.030490000000     0.504770000000     0.193300000000    -0.0738551  
C64      C      0.030570000000     0.504450000000     0.147230000000     0.0366168  
C65      C      0.992480000000     0.492370000000     0.123710000000    -0.134321   
C66      C      0.954390000000     0.480320000000     0.147240000000     0.0364899  
C67      C      0.992480000000     0.492450000000     0.266140000000     0.0249328  
C68      C      0.954470000000     0.504790000000     0.289830000000    -0.0739235  
C69      C      0.954380000000     0.504520000000     0.335890000000     0.0364711  
C70      C      0.992480000000     0.492500000000     0.359430000000    -0.134315   
C71      C      0.030580000000     0.480450000000     0.335910000000     0.0366006  
C72      C      0.030500000000     0.480130000000     0.289840000000    -0.0738376  
C73      C      0.194510000000     0.978070000000     0.454420000000    -0.0745214  
C74      C      0.218000000000     0.992420000000     0.491670000000     0.024996   
C75      C      0.194520000000     0.006780000000     0.528920000000    -0.0743174  
C76      C      0.148360000000     0.006460000000     0.529070000000     0.0365515  
C77      C      0.124790000000     0.992450000000     0.491660000000    -0.134544   
C78      C      0.148360000000     0.978420000000     0.454270000000     0.036514   
C79      C      0.266900000000     0.992430000000     0.491660000000     0.0251273  
C80      C      0.290390000000     0.954780000000     0.478210000000    -0.0745345  
C81      C      0.336540000000     0.954650000000     0.478530000000     0.0367034  
C82      C      0.360110000000     0.992440000000     0.491630000000    -0.134541   
C83      C      0.336540000000     0.030220000000     0.504740000000     0.0368447  
C84      C      0.290380000000     0.030080000000     0.505100000000    -0.0744385  
C85      C      0.790400000000     0.006940000000     0.454330000000    -0.0743946  
C86      C      0.766900000000     0.992580000000     0.491580000000     0.0249707  
C87      C      0.790380000000     0.978220000000     0.528850000000    -0.074504   
C88      C      0.836530000000     0.978560000000     0.529000000000     0.0364344  
C89      C      0.860110000000     0.992580000000     0.491610000000    -0.134445   
C90      C      0.836560000000     0.006600000000     0.454210000000     0.0365914  
C91      C      0.718000000000     0.992560000000     0.491560000000     0.0251341  
C92      C      0.694510000000     0.030200000000     0.478100000000    -0.0744243  
C93      C      0.648350000000     0.030320000000     0.478430000000     0.0367791  
C94      C      0.624800000000     0.992520000000     0.491530000000    -0.13445    
C95      C      0.648370000000     0.954750000000     0.504640000000     0.0366976  
C96      C      0.694530000000     0.954900000000     0.505000000000    -0.0745492  
C97      C      0.006730000000     0.790450000000     0.528890000000    -0.0743708  
C98      C      0.992380000000     0.766970000000     0.491620000000     0.0249632  
C99      C      0.978030000000     0.790460000000     0.454370000000    -0.0744492  
C100     C      0.978370000000     0.836620000000     0.454230000000     0.0363544  
C101     C      0.992390000000     0.860180000000     0.491640000000    -0.134377   
C102     C      0.006400000000     0.836600000000     0.529040000000     0.0365397  
C103     C      0.992400000000     0.718070000000     0.491610000000     0.0251338  
C104     C      0.030050000000     0.694590000000     0.505060000000    -0.074424   
C105     C      0.030200000000     0.648440000000     0.504700000000     0.036819   
C106     C      0.992430000000     0.624860000000     0.491580000000    -0.134459   
C107     C      0.954640000000     0.648420000000     0.478480000000     0.036699   
C108     C      0.954750000000     0.694580000000     0.478150000000    -0.0745846  
C109     C      0.030180000000     0.290460000000     0.478180000000    -0.0744506  
C110     C      0.992530000000     0.266970000000     0.491620000000     0.0251353  
C111     C      0.954870000000     0.290450000000     0.505050000000    -0.0745528  
C112     C      0.954720000000     0.336600000000     0.504690000000     0.0367071  
C113     C      0.992500000000     0.360170000000     0.491590000000    -0.134446   
C114     C      0.030300000000     0.336610000000     0.478500000000     0.0368032  
C115     C      0.992540000000     0.218070000000     0.491630000000     0.0249875  
C116     C      0.006900000000     0.194580000000     0.454380000000    -0.0743698  
C117     C      0.006560000000     0.148420000000     0.454250000000     0.0365908  
C118     C      0.992520000000     0.124860000000     0.491640000000    -0.134477   
C119     C      0.978500000000     0.148430000000     0.529040000000     0.0364417  
C120     C      0.978170000000     0.194590000000     0.528890000000    -0.0745096  
C121     C      0.194510000000     0.006710000000     0.028800000000    -0.0742936  
C122     C      0.217980000000     0.992360000000     0.991530000000     0.0249167  
C123     C      0.194490000000     0.977990000000     0.954290000000    -0.0745027  
C124     C      0.148340000000     0.978320000000     0.954160000000     0.0364954  
C125     C      0.124780000000     0.992330000000     0.991560000000    -0.134573   
C126     C      0.148350000000     0.006360000000     0.028960000000     0.0366562  
C127     C      0.266890000000     0.992380000000     0.991520000000     0.0250516  
C128     C      0.290360000000     0.030040000000     0.004960000000    -0.074337   
C129     C      0.336510000000     0.030190000000     0.004610000000     0.0369099  
C130     C      0.360090000000     0.992410000000     0.991510000000    -0.134557   
C131     C      0.336540000000     0.954620000000     0.978410000000     0.0367068  
C132     C      0.290380000000     0.954740000000     0.978070000000    -0.0745552  
C133     C      0.694500000000     0.954810000000     0.005090000000    -0.0744485  
C134     C      0.717990000000     0.992470000000     0.991650000000     0.0250095  
C135     C      0.694500000000     0.030120000000     0.978190000000    -0.0744405  
C136     C      0.648350000000     0.030250000000     0.978530000000     0.0368542  
C137     C      0.624780000000     0.992470000000     0.991620000000    -0.13456    
C138     C      0.648350000000     0.954680000000     0.004740000000     0.0367682  
C139     C      0.766890000000     0.992460000000     0.991640000000     0.0249311  
C140     C      0.790370000000     0.978090000000     0.028900000000    -0.0744382  
C141     C      0.836530000000     0.978410000000     0.029030000000     0.036562   
C142     C      0.860090000000     0.992420000000     0.991630000000    -0.134617   
C143     C      0.836530000000     0.006450000000     0.954240000000     0.0366325  
C144     C      0.790370000000     0.006810000000     0.954380000000    -0.0744322  
C145     C      0.978030000000     0.790300000000     0.954340000000    -0.0745014  
C146     C      0.992400000000     0.766810000000     0.991590000000     0.0249001  
C147     C      0.006770000000     0.790290000000     0.028850000000    -0.0743118  
C148     C      0.006430000000     0.836450000000     0.028990000000     0.0366884  
C149     C      0.992400000000     0.860020000000     0.991600000000    -0.134588   
C150     C      0.978370000000     0.836450000000     0.954200000000     0.0364501  
C151     C      0.992410000000     0.717910000000     0.991580000000     0.0250447  
C152     C      0.954760000000     0.694420000000     0.978140000000    -0.0745692  
C153     C      0.954640000000     0.648260000000     0.978480000000     0.0367213  
C154     C      0.992430000000     0.624710000000     0.991570000000    -0.134575   
C155     C      0.030220000000     0.648280000000     0.004670000000     0.0369046  
C156     C      0.030070000000     0.694430000000     0.005020000000    -0.0743428  
C157     C      0.954850000000     0.290290000000     0.005050000000    -0.0744507  
C158     C      0.992500000000     0.266810000000     0.991590000000     0.0250623  
C159     C      0.030140000000     0.290290000000     0.978120000000    -0.0744574  
C160     C      0.030270000000     0.336450000000     0.978460000000     0.0368     
C161     C      0.992480000000     0.360010000000     0.991570000000    -0.134538   
C162     C      0.954700000000     0.336440000000     0.004700000000     0.0367612  
C163     C      0.992500000000     0.217910000000     0.991590000000     0.0248871  
C164     C      0.978150000000     0.194430000000     0.028860000000    -0.074415   
C165     C      0.978480000000     0.148270000000     0.029000000000     0.0365516  
C166     C      0.992480000000     0.124700000000     0.991600000000    -0.134566   
C167     C      0.006490000000     0.148260000000     0.954190000000     0.0365627  
C168     C      0.006840000000     0.194420000000     0.954330000000    -0.074352   
H1       H      0.469690000000     0.924800000000     0.772840000000     0.0458416  
H2       H      0.470650000000     0.924560000000     0.853050000000     0.0281156  
H3       H      0.514350000000     0.060340000000     0.853070000000     0.0281031  
H4       H      0.515350000000     0.060120000000     0.772860000000     0.0458277  
H5       H      0.469630000000     0.060110000000     0.710280000000     0.0458343  
H6       H      0.470610000000     0.060360000000     0.630070000000     0.0281103  
H7       H      0.514410000000     0.924610000000     0.630050000000     0.0281116  
H8       H      0.515410000000     0.924830000000     0.710260000000     0.0458217  
H9       H      0.469550000000     0.924800000000     0.272860000000     0.0458375  
H10      H      0.470560000000     0.924580000000     0.353080000000     0.0281077  
H11      H      0.514220000000     0.060380000000     0.353050000000     0.0281053  
H12      H      0.515180000000     0.060130000000     0.272830000000     0.0458541  
H13      H      0.469460000000     0.060090000000     0.210260000000     0.0458613  
H14      H      0.470460000000     0.060320000000     0.130050000000     0.028108   
H15      H      0.514290000000     0.924580000000     0.130070000000     0.0281304  
H16      H      0.515270000000     0.924820000000     0.210280000000     0.0458373  
H17      H      0.924780000000     0.515250000000     0.772870000000     0.0458122  
H18      H      0.924550000000     0.514220000000     0.853080000000     0.0281166  
H19      H      0.060340000000     0.470540000000     0.853060000000     0.0280924  
H20      H      0.060100000000     0.469590000000     0.772850000000     0.0458495  
H21      H      0.060080000000     0.515350000000     0.710300000000     0.0458375  
H22      H      0.060320000000     0.514410000000     0.630080000000     0.0281108  
H23      H      0.924580000000     0.470600000000     0.630050000000     0.0281162  
H24      H      0.924810000000     0.469570000000     0.710270000000     0.0458453  
H25      H      0.060120000000     0.515300000000     0.210270000000     0.0458558  
H26      H      0.060350000000     0.514280000000     0.130050000000     0.0281195  
H27      H      0.924600000000     0.470480000000     0.130080000000     0.0281182  
H28      H      0.924840000000     0.469530000000     0.210290000000     0.0458334  
H29      H      0.924820000000     0.515280000000     0.272840000000     0.0458132  
H30      H      0.924590000000     0.514340000000     0.353060000000     0.0281233  
H31      H      0.060370000000     0.470650000000     0.353080000000     0.0281154  
H32      H      0.060140000000     0.469620000000     0.272870000000     0.0458466  
H33      H      0.211890000000     0.017750000000     0.558170000000     0.046835   
H34      H      0.131170000000     0.017590000000     0.558340000000     0.0284653  
H35      H      0.131160000000     0.967300000000     0.424990000000     0.0284185  
H36      H      0.211880000000     0.967100000000     0.425180000000     0.0468462  
H37      H      0.273020000000     0.925230000000     0.467960000000     0.0467574  
H38      H      0.353750000000     0.925080000000     0.468120000000     0.0280774  
H39      H      0.353740000000     0.059810000000     0.515140000000     0.0280687  
H40      H      0.273010000000     0.059620000000     0.515360000000     0.046779   
H41      H      0.773000000000     0.967250000000     0.558080000000     0.046836   
H42      H      0.853720000000     0.967440000000     0.558280000000     0.0284167  
H43      H      0.853770000000     0.017720000000     0.424940000000     0.028446   
H44      H      0.773040000000     0.017900000000     0.425090000000     0.0468753  
H45      H      0.711870000000     0.059750000000     0.467860000000     0.0467726  
H46      H      0.631140000000     0.059890000000     0.468020000000     0.028084   
H47      H      0.631180000000     0.925160000000     0.515040000000     0.0280706  
H48      H      0.711910000000     0.925360000000     0.515250000000     0.046764   
H49      H      0.967070000000     0.773100000000     0.425120000000     0.046818   
H50      H      0.967260000000     0.853820000000     0.424960000000     0.0284383  
H51      H      0.017520000000     0.853800000000     0.558320000000     0.0284574  
H52      H      0.017690000000     0.773070000000     0.558120000000     0.0468643  
H53      H      0.059590000000     0.711970000000     0.515320000000     0.0467613  
H54      H      0.059780000000     0.631240000000     0.515110000000     0.0280797  
H55      H      0.925060000000     0.631220000000     0.468060000000     0.0280763  
H56      H      0.925210000000     0.711940000000     0.467900000000     0.0467886  
H57      H      0.925330000000     0.273070000000     0.515300000000     0.0467711  
H58      H      0.925130000000     0.353800000000     0.515090000000     0.0280765  
H59      H      0.059870000000     0.353820000000     0.468090000000     0.0280834  
H60      H      0.059720000000     0.273090000000     0.467940000000     0.0467916  
H61      H      0.017880000000     0.211940000000     0.425140000000     0.0468676  
H62      H      0.017680000000     0.131220000000     0.424980000000     0.0284649  
H63      H      0.967360000000     0.131240000000     0.558310000000     0.0284386  
H64      H      0.967200000000     0.211960000000     0.558120000000     0.0468549  
H65      H      0.211860000000     0.967030000000     0.925040000000     0.0468258  
H66      H      0.131130000000     0.967190000000     0.924890000000     0.0284216  
H67      H      0.131160000000     0.017480000000     0.058240000000     0.0284585  
H68      H      0.211880000000     0.017680000000     0.058030000000     0.0468791  
H69      H      0.272980000000     0.059580000000     0.015210000000     0.0467797  
H70      H      0.353700000000     0.059770000000     0.015020000000     0.0280886  
H71      H      0.353750000000     0.925050000000     0.967990000000     0.0280643  
H72      H      0.273020000000     0.925190000000     0.967820000000     0.0467602  
H73      H      0.711880000000     0.059660000000     0.967950000000     0.0467611  
H74      H      0.631150000000     0.059830000000     0.968110000000     0.0280541  
H75      H      0.631140000000     0.925100000000     0.015140000000     0.0281002  
H76      H      0.711870000000     0.925270000000     0.015340000000     0.0467768  
H77      H      0.773000000000     0.967130000000     0.058140000000     0.0468395  
H78      H      0.853730000000     0.967280000000     0.058300000000     0.0283979  
H79      H      0.853720000000     0.017560000000     0.924960000000     0.0284214  
H80      H      0.773000000000     0.017780000000     0.925150000000     0.0468795  
H81      H      0.017740000000     0.772920000000     0.058080000000     0.0468736  
H82      H      0.017560000000     0.853640000000     0.058260000000     0.0284307  
H83      H      0.967240000000     0.853650000000     0.924930000000     0.028407   
H84      H      0.967060000000     0.772930000000     0.925100000000     0.0468251  
H85      H      0.925210000000     0.711780000000     0.967900000000     0.0467611  
H86      H      0.925060000000     0.631060000000     0.968070000000     0.0280503  
H87      H      0.059800000000     0.631080000000     0.015070000000     0.0280844  
H88      H      0.059610000000     0.711800000000     0.015270000000     0.0467818  
H89      H      0.059680000000     0.272930000000     0.967870000000     0.0467818  
H90      H      0.059840000000     0.353650000000     0.968040000000     0.0280594  
H91      H      0.925130000000     0.353640000000     0.015110000000     0.0280958  
H92      H      0.925310000000     0.272920000000     0.015310000000     0.0467776  
H93      H      0.967200000000     0.211800000000     0.058100000000     0.0468489  
H94      H      0.967370000000     0.131080000000     0.058280000000     0.0284258  
H95      H      0.017600000000     0.131060000000     0.924920000000     0.0284702  
H96      H      0.017800000000     0.211790000000     0.925090000000     0.0468604  
O1       O      0.991290000000     0.055040000000     0.028440000000    -0.546125   
O2       O      0.993600000000     0.929680000000     0.028440000000    -0.546208   
O3       O      0.055120000000     0.993510000000     0.028430000000    -0.546167   
O4       O      0.929770000000     0.991200000000     0.028460000000    -0.546089   
O5       O      0.929750000000     0.993560000000     0.954770000000    -0.54609    
O6       O      0.055110000000     0.991160000000     0.954740000000    -0.546055   
O7       O      0.991230000000     0.929680000000     0.954750000000    -0.54611    
O8       O      0.993630000000     0.055040000000     0.954750000000    -0.546052   
O9       O      0.993670000000     0.055200000000     0.454800000000    -0.546136   
O10      O      0.991250000000     0.929840000000     0.454790000000    -0.546078   
O11      O      0.929780000000     0.993730000000     0.454780000000    -0.546056   
O12      O      0.055140000000     0.991310000000     0.454810000000    -0.546011   
O13      O      0.055120000000     0.993660000000     0.528500000000    -0.546111   
O14      O      0.929770000000     0.991380000000     0.528480000000    -0.546246   
O15      O      0.993590000000     0.929840000000     0.528490000000    -0.546159   
O16      O      0.991300000000     0.055200000000     0.528490000000    -0.546099   
O17      O      0.029400000000     0.492440000000     0.054140000000    -0.546063   
O18      O      0.029380000000     0.492290000000     0.928990000000    -0.546327   
O19      O      0.029380000000     0.555050000000     0.991750000000    -0.546245   
O20      O      0.029400000000     0.429680000000     0.991380000000    -0.546179   
O21      O      0.955540000000     0.429660000000     0.991760000000    -0.546262   
O22      O      0.955520000000     0.555040000000     0.991390000000    -0.54624    
O23      O      0.955520000000     0.492430000000     0.928990000000    -0.546221   
O24      O      0.955540000000     0.492280000000     0.054150000000    -0.546105   
O25      O      0.955540000000     0.492580000000     0.428990000000    -0.546224   
O26      O      0.955530000000     0.492430000000     0.554140000000    -0.546315   
O27      O      0.955510000000     0.555190000000     0.491380000000    -0.546224   
O28      O      0.955550000000     0.429820000000     0.491750000000    -0.546188   
O29      O      0.029410000000     0.429840000000     0.491390000000    -0.546167   
O30      O      0.029380000000     0.555220000000     0.491750000000    -0.546025   
O31      O      0.029390000000     0.492610000000     0.554150000000    -0.546142   
O32      O      0.029400000000     0.492450000000     0.429000000000    -0.546193   
O33      O      0.492490000000     0.955510000000     0.054140000000    -0.546125   
O34      O      0.492400000000     0.955510000000     0.928980000000    -0.546122   
O35      O      0.555130000000     0.955520000000     0.991770000000    -0.546213   
O36      O      0.429760000000     0.955500000000     0.991350000000    -0.546176   
O37      O      0.429740000000     0.029360000000     0.991710000000    -0.546146   
O38      O      0.555120000000     0.029390000000     0.991410000000    -0.546044   
O39      O      0.492530000000     0.029370000000     0.928980000000    -0.546175   
O40      O      0.492320000000     0.029370000000     0.054140000000    -0.546037   
O41      O      0.492360000000     0.955550000000     0.428980000000    -0.546225   
O42      O      0.492570000000     0.955550000000     0.554140000000    -0.546224   
O43      O      0.429770000000     0.955530000000     0.491410000000    -0.546202   
O44      O      0.555150000000     0.955570000000     0.491710000000    -0.546164   
O45      O      0.555130000000     0.029430000000     0.491350000000    -0.546178   
O46      O      0.429750000000     0.029390000000     0.491770000000    -0.546202   
O47      O      0.492390000000     0.029410000000     0.554140000000    -0.546158   
O48      O      0.492490000000     0.029410000000     0.428980000000    -0.546158   
V1       V      0.992450000000     0.992360000000     0.031410000000     1.38654    
V2       V      0.992430000000     0.992360000000     0.951790000000     1.38595    
V3       V      0.992460000000     0.992520000000     0.451830000000     1.38598    
V4       V      0.992440000000     0.992520000000     0.531450000000     1.38644    
V5       V      0.032350000000     0.492370000000     0.991560000000     1.38725    
V6       V      0.952570000000     0.492350000000     0.991570000000     1.3865     
V7       V      0.952580000000     0.492510000000     0.491570000000     1.38691    
V8       V      0.032350000000     0.492530000000     0.491570000000     1.38693    
V9       V      0.492450000000     0.952560000000     0.991560000000     1.38661    
V10      V      0.492430000000     0.032330000000     0.991560000000     1.38666    
V11      V      0.492460000000     0.952590000000     0.491560000000     1.38664    
V12      V      0.492440000000     0.032370000000     0.491560000000     1.38698    


