data_structure

_audit_creation_method RASPA-1.0
_audit_creation_date 2023-5-22
_audit_author_name 'Poobodin Mano'

_cell_length_a    30.3343
_cell_length_b    30.3343
_cell_length_c    30.2809
_cell_angle_alpha 90
_cell_angle_beta  89.9999
_cell_angle_gamma 90
_cell_volume      27863.6

_symmetry_cell_setting          triclinic
_symmetry_space_group_name_Hall 'P 1'
_symmetry_space_group_name_H-M  'P 1'
_symmetry_Int_Tables_number     1

_symmetry_equiv_pos_as_xyz 'x,y,z'

loop_
_atom_site_label
_atom_site_type_symbol
_atom_site_fract_x
_atom_site_fract_y
_atom_site_fract_z
_atom_site_charge
C1       C      0.991580000000     0.991720000000     0.575970000000     0.43445    
C2       C      0.991620000000     0.991710000000     0.408970000000     0.434707   
C3       C      0.991600000000     0.908360000000     0.492480000000     0.434548   
C4       C      0.991590000000     0.075080000000     0.492470000000     0.434521   
C5       C      0.991580000000     0.491700000000     0.576040000000     0.434453   
C6       C      0.991620000000     0.491720000000     0.409040000000     0.434737   
C7       C      0.991610000000     0.575070000000     0.492540000000     0.434604   
C8       C      0.991600000000     0.408360000000     0.492530000000     0.434581   
C9       C      0.491640000000     0.991550000000     0.576140000000     0.434609   
C10      C      0.491610000000     0.991530000000     0.409140000000     0.434572   
C11      C      0.491640000000     0.074900000000     0.492620000000     0.434615   
C12      C      0.491600000000     0.908180000000     0.492640000000     0.434709   
C13      C      0.491640000000     0.491540000000     0.575770000000     0.43464    
C14      C      0.491610000000     0.491550000000     0.408770000000     0.43454    
C15      C      0.491650000000     0.408180000000     0.492270000000     0.434434   
C16      C      0.491610000000     0.574900000000     0.492290000000     0.434421   
C17      C      0.991570000000     0.991630000000     0.908970000000     0.434471   
C18      C      0.991640000000     0.991630000000     0.075970000000     0.434708   
C19      C      0.074970000000     0.991640000000     0.992430000000     0.434556   
C20      C      0.908250000000     0.991610000000     0.992510000000     0.434637   
C21      C      0.991590000000     0.491620000000     0.909030000000     0.434818   
C22      C      0.991660000000     0.491630000000     0.076040000000     0.434628   
C23      C      0.908270000000     0.491640000000     0.992560000000     0.434749   
C24      C      0.074990000000     0.491610000000     0.992500000000     0.434654   
C25      C      0.491640000000     0.991590000000     0.909140000000     0.434439   
C26      C      0.491570000000     0.991580000000     0.076140000000     0.434423   
C27      C      0.574970000000     0.991580000000     0.992670000000     0.434577   
C28      C      0.408250000000     0.991600000000     0.992600000000     0.43464    
C29      C      0.491660000000     0.491580000000     0.908770000000     0.434791   
C30      C      0.491600000000     0.491590000000     0.075770000000     0.434538   
C31      C      0.574990000000     0.491600000000     0.992300000000     0.434394   
C32      C      0.408270000000     0.491570000000     0.992250000000     0.434688   
C33      C      0.693380000000     0.453680000000     0.980060000000    -0.0740042  
C34      C      0.717060000000     0.491630000000     0.992440000000     0.0249814  
C35      C      0.693350000000     0.529570000000     0.004760000000    -0.0738403  
C36      C      0.647280000000     0.529650000000     0.004420000000     0.0366492  
C37      C      0.623770000000     0.491610000000     0.992340000000    -0.134389   
C38      C      0.647310000000     0.453590000000     0.980310000000     0.0365705  
C39      C      0.766200000000     0.491640000000     0.992490000000     0.0250079  
C40      C      0.789890000000     0.453700000000     0.004860000000    -0.0738701  
C41      C      0.835960000000     0.453620000000     0.004600000000     0.0367478  
C42      C      0.859490000000     0.491650000000     0.992560000000    -0.134541   
C43      C      0.835970000000     0.529670000000     0.980480000000     0.0366397  
C44      C      0.789900000000     0.529590000000     0.980150000000    -0.0740514  
C45      C      0.289890000000     0.529520000000     0.979940000000    -0.0740472  
C46      C      0.266200000000     0.491570000000     0.992320000000     0.0250011  
C47      C      0.289900000000     0.453630000000     0.004660000000    -0.0738516  
C48      C      0.335970000000     0.453540000000     0.004330000000     0.0367115  
C49      C      0.359490000000     0.491570000000     0.992250000000    -0.13451    
C50      C      0.335960000000     0.529590000000     0.980200000000     0.0366484  
C51      C      0.217060000000     0.491580000000     0.992370000000     0.0250003  
C52      C      0.193380000000     0.529540000000     0.004740000000    -0.0738649  
C53      C      0.147310000000     0.529630000000     0.004490000000     0.0367266  
C54      C      0.123770000000     0.491600000000     0.992460000000    -0.134498   
C55      C      0.147280000000     0.453570000000     0.980390000000     0.0366383  
C56      C      0.193350000000     0.453640000000     0.980040000000    -0.0740394  
C57      C      0.789890000000     0.953650000000     0.004950000000    -0.0738398  
C58      C      0.766180000000     0.991590000000     0.992620000000     0.0248676  
C59      C      0.789860000000     0.029540000000     0.980250000000    -0.0738886  
C60      C      0.835930000000     0.029630000000     0.980510000000     0.036745   
C61      C      0.859470000000     0.991610000000     0.992550000000    -0.134625   
C62      C      0.835960000000     0.953570000000     0.004620000000     0.0367037  
C63      C      0.717040000000     0.991580000000     0.992650000000     0.0248804  
C64      C      0.693340000000     0.953630000000     0.980310000000    -0.0740258  
C65      C      0.647270000000     0.953540000000     0.980620000000     0.0366397  
C66      C      0.623740000000     0.991570000000     0.992680000000    -0.134705   
C67      C      0.647270000000     0.029600000000     0.004730000000     0.0368901  
C68      C      0.693340000000     0.029520000000     0.005010000000    -0.0737502  
C69      C      0.193340000000     0.953690000000     0.980100000000    -0.0739911  
C70      C      0.217040000000     0.991630000000     0.992470000000     0.0248734  
C71      C      0.193340000000     0.029580000000     0.004810000000    -0.0737543  
C72      C      0.147270000000     0.029660000000     0.004500000000     0.0369003  
C73      C      0.123740000000     0.991640000000     0.992430000000    -0.134686   
C74      C      0.147270000000     0.953610000000     0.980370000000     0.03663    
C75      C      0.266180000000     0.991620000000     0.992500000000     0.0248846  
C76      C      0.289850000000     0.953670000000     0.004870000000    -0.0738616  
C77      C      0.335930000000     0.953580000000     0.004610000000     0.0367026  
C78      C      0.359470000000     0.991610000000     0.992570000000    -0.134619   
C79      C      0.335960000000     0.029640000000     0.980500000000     0.0367305  
C80      C      0.289890000000     0.029560000000     0.980170000000    -0.0738562  
C81      C      0.529060000000     0.505380000000     0.290200000000    -0.0745328  
C82      C      0.491590000000     0.491580000000     0.266720000000     0.0252958  
C83      C      0.454140000000     0.477770000000     0.290210000000    -0.0745046  
C84      C      0.454000000000     0.478110000000     0.336360000000     0.0367218  
C85      C      0.491610000000     0.491560000000     0.359920000000    -0.134312   
C86      C      0.529200000000     0.505020000000     0.336360000000     0.0367679  
C87      C      0.491590000000     0.491580000000     0.217820000000     0.0252903  
C88      C      0.505370000000     0.529050000000     0.194340000000    -0.0744729  
C89      C      0.505020000000     0.529200000000     0.148190000000     0.0367072  
C90      C      0.491590000000     0.491590000000     0.124620000000    -0.13426    
C91      C      0.478160000000     0.453980000000     0.148180000000     0.0367211  
C92      C      0.477800000000     0.454120000000     0.194340000000    -0.0745039  
C93      C      0.529120000000     0.477770000000     0.694340000000    -0.0745002  
C94      C      0.491660000000     0.491560000000     0.717820000000     0.0252926  
C95      C      0.454190000000     0.505330000000     0.694340000000    -0.0745165  
C96      C      0.454040000000     0.504980000000     0.648190000000     0.0367152  
C97      C      0.491650000000     0.491540000000     0.624620000000    -0.134299   
C98      C      0.529260000000     0.478110000000     0.648180000000     0.0367249  
C99      C      0.491670000000     0.491570000000     0.766720000000     0.0253168  
C100     C      0.505470000000     0.454110000000     0.790210000000    -0.0745495  
C101     C      0.505120000000     0.453970000000     0.836360000000     0.0367713  
C102     C      0.491670000000     0.491580000000     0.859920000000    -0.134399   
C103     C      0.478220000000     0.529180000000     0.836350000000     0.0367842  
C104     C      0.477870000000     0.529030000000     0.790200000000    -0.0745617  
C105     C      0.477760000000     0.954110000000     0.194700000000    -0.0744518  
C106     C      0.491570000000     0.991560000000     0.218190000000     0.0251372  
C107     C      0.505370000000     0.029020000000     0.194710000000    -0.0743225  
C108     C      0.505020000000     0.029170000000     0.148560000000     0.0368497  
C109     C      0.491560000000     0.991580000000     0.124990000000    -0.134371   
C110     C      0.478100000000     0.953970000000     0.148550000000     0.0366889  
C111     C      0.491580000000     0.991550000000     0.267090000000     0.025206   
C112     C      0.454110000000     0.977770000000     0.290580000000    -0.0745305  
C113     C      0.453980000000     0.978110000000     0.336730000000     0.0367488  
C114     C      0.491600000000     0.991540000000     0.360290000000    -0.134468   
C115     C      0.529200000000     0.004970000000     0.336720000000     0.0369289  
C116     C      0.529050000000     0.005320000000     0.290570000000    -0.0744284  
C117     C      0.529120000000     0.977770000000     0.694710000000    -0.0745863  
C118     C      0.491660000000     0.991580000000     0.718190000000     0.0252111  
C119     C      0.454200000000     0.005380000000     0.694710000000    -0.0743984  
C120     C      0.454050000000     0.005020000000     0.648560000000     0.036889   
C121     C      0.491650000000     0.991560000000     0.624990000000    -0.134472   
C122     C      0.529250000000     0.978110000000     0.648550000000     0.0367842  
C123     C      0.491670000000     0.991590000000     0.767090000000     0.0251562  
C124     C      0.505450000000     0.954120000000     0.790570000000    -0.0744894  
C125     C      0.505090000000     0.953980000000     0.836730000000     0.0367193  
C126     C      0.491660000000     0.991590000000     0.860290000000    -0.134413   
C127     C      0.478230000000     0.029200000000     0.836720000000     0.036835   
C128     C      0.477880000000     0.029050000000     0.790570000000    -0.0743601  
C129     C      0.453640000000     0.789820000000     0.480190000000    -0.0740359  
C130     C      0.491580000000     0.766110000000     0.492500000000     0.0251303  
C131     C      0.529530000000     0.789790000000     0.504890000000    -0.0740176  
C132     C      0.529620000000     0.835860000000     0.504640000000     0.0366073  
C133     C      0.491590000000     0.859410000000     0.492610000000    -0.134435   
C134     C      0.453560000000     0.835890000000     0.480540000000     0.0366296  
C135     C      0.491590000000     0.716970000000     0.492440000000     0.0251011  
C136     C      0.453640000000     0.693260000000     0.504760000000    -0.0739952  
C137     C      0.453560000000     0.647190000000     0.504410000000     0.0365274  
C138     C      0.491590000000     0.623680000000     0.492320000000    -0.134224   
C139     C      0.529620000000     0.647220000000     0.480290000000     0.0365041  
C140     C      0.529530000000     0.693300000000     0.480050000000    -0.0739735  
C141     C      0.453720000000     0.193300000000     0.504870000000    -0.0739913  
C142     C      0.491660000000     0.216970000000     0.492470000000     0.0251117  
C143     C      0.529600000000     0.193260000000     0.480140000000    -0.0739663  
C144     C      0.529680000000     0.147190000000     0.480490000000     0.0365369  
C145     C      0.491650000000     0.123680000000     0.492590000000    -0.134287   
C146     C      0.453630000000     0.147220000000     0.504630000000     0.0365673  
C147     C      0.491660000000     0.266110000000     0.492410000000     0.0251181  
C148     C      0.453720000000     0.289790000000     0.480030000000    -0.073994   
C149     C      0.453630000000     0.335860000000     0.480280000000     0.0365552  
C150     C      0.491660000000     0.359400000000     0.492300000000    -0.134271   
C151     C      0.529690000000     0.335890000000     0.504370000000     0.0365634  
C152     C      0.529610000000     0.289820000000     0.504720000000    -0.0740059  
C153     C      0.954180000000     0.477910000000     0.290460000000    -0.0745407  
C154     C      0.991650000000     0.491680000000     0.266990000000     0.0252147  
C155     C      0.029110000000     0.505470000000     0.290470000000    -0.0744153  
C156     C      0.029240000000     0.505140000000     0.336630000000     0.0369075  
C157     C      0.991630000000     0.491710000000     0.360190000000    -0.134529   
C158     C      0.954030000000     0.478270000000     0.336620000000     0.0367898  
C159     C      0.991670000000     0.491660000000     0.218090000000     0.0251821  
C160     C      0.977860000000     0.454200000000     0.194610000000    -0.0745628  
C161     C      0.978220000000     0.454050000000     0.148460000000     0.0368423  
C162     C      0.991670000000     0.491640000000     0.124880000000    -0.134548   
C163     C      0.005130000000     0.529250000000     0.148440000000     0.0369001  
C164     C      0.005470000000     0.529120000000     0.194600000000    -0.0743878  
C165     C      0.029030000000     0.477860000000     0.694610000000    -0.0743979  
C166     C      0.991560000000     0.491650000000     0.718090000000     0.0251716  
C167     C      0.954110000000     0.505460000000     0.694610000000    -0.0745056  
C168     C      0.953970000000     0.505120000000     0.648450000000     0.0367465  
C169     C      0.991580000000     0.491690000000     0.624880000000    -0.134478   
C170     C      0.029180000000     0.478230000000     0.648450000000     0.0368673  
C171     C      0.991560000000     0.491640000000     0.766990000000     0.025231   
C172     C      0.005350000000     0.454170000000     0.790460000000    -0.0744564  
C173     C      0.005010000000     0.454020000000     0.836620000000     0.0369802  
C174     C      0.991580000000     0.491620000000     0.860190000000    -0.134668   
C175     C      0.978130000000     0.529230000000     0.836630000000     0.0368286  
C176     C      0.977770000000     0.529100000000     0.790470000000    -0.0745694  
C177     C      0.029110000000     0.005460000000     0.290400000000    -0.0743073  
C178     C      0.991650000000     0.991660000000     0.266920000000     0.0250958  
C179     C      0.954190000000     0.977870000000     0.290400000000    -0.0745511  
C180     C      0.954040000000     0.978230000000     0.336550000000     0.0368452  
C181     C      0.991630000000     0.991690000000     0.360120000000    -0.13469    
C182     C      0.029240000000     0.005130000000     0.336560000000     0.0370511  
C183     C      0.991660000000     0.991640000000     0.218020000000     0.0250801  
C184     C      0.005450000000     0.029100000000     0.194530000000    -0.0742887  
C185     C      0.005100000000     0.029230000000     0.148370000000     0.0370898  
C186     C      0.991660000000     0.991630000000     0.124820000000    -0.134677   
C187     C      0.978230000000     0.954020000000     0.148390000000     0.0367932  
C188     C      0.977880000000     0.954170000000     0.194550000000    -0.0745346  
C189     C      0.005330000000     0.954190000000     0.790390000000    -0.0743862  
C190     C      0.991540000000     0.991660000000     0.766920000000     0.0250672  
C191     C      0.977740000000     0.029110000000     0.790410000000    -0.0744002  
C192     C      0.978100000000     0.029240000000     0.836570000000     0.0369134  
C193     C      0.991550000000     0.991640000000     0.860120000000    -0.134611   
C194     C      0.004990000000     0.954040000000     0.836550000000     0.0368787  
C195     C      0.991540000000     0.991670000000     0.718020000000     0.0250683  
C196     C      0.029010000000     0.977890000000     0.694540000000    -0.074381   
C197     C      0.029170000000     0.978260000000     0.648380000000     0.0368636  
C198     C      0.991570000000     0.991710000000     0.624820000000    -0.134576   
C199     C      0.953960000000     0.005140000000     0.648380000000     0.0368842  
C200     C      0.954090000000     0.005470000000     0.694540000000    -0.074389   
C201     C      0.029550000000     0.789990000000     0.504880000000    -0.0738646  
C202     C      0.991610000000     0.766290000000     0.492510000000     0.0249739  
C203     C      0.953670000000     0.789980000000     0.480140000000    -0.073991   
C204     C      0.953580000000     0.836050000000     0.480420000000     0.0365757  
C205     C      0.991600000000     0.859580000000     0.492490000000    -0.134441   
C206     C      0.029630000000     0.836060000000     0.504570000000     0.0366752  
C207     C      0.991610000000     0.717140000000     0.492530000000     0.0250416  
C208     C      0.029560000000     0.693450000000     0.480190000000    -0.0739164  
C209     C      0.029640000000     0.647380000000     0.480500000000     0.0367396  
C210     C      0.991610000000     0.623850000000     0.492540000000    -0.134481   
C211     C      0.953580000000     0.647390000000     0.504580000000     0.0366108  
C212     C      0.953660000000     0.693460000000     0.504870000000    -0.0740537  
C213     C      0.953640000000     0.193450000000     0.504810000000    -0.0739893  
C214     C      0.991590000000     0.217150000000     0.492480000000     0.0249932  
C215     C      0.029540000000     0.193450000000     0.480140000000    -0.0738994  
C216     C      0.029620000000     0.147380000000     0.480430000000     0.0367671  
C217     C      0.991590000000     0.123850000000     0.492470000000    -0.13454    
C218     C      0.953560000000     0.147380000000     0.504510000000     0.0366274  
C219     C      0.991590000000     0.266290000000     0.492490000000     0.0250146  
C220     C      0.953650000000     0.289980000000     0.480130000000    -0.0740267  
C221     C      0.953570000000     0.336050000000     0.480440000000     0.0365961  
C222     C      0.991590000000     0.359580000000     0.492520000000    -0.134443   
C223     C      0.029620000000     0.336040000000     0.504590000000     0.0366834  
C224     C      0.029530000000     0.289980000000     0.504880000000    -0.0738882  
H1       H      0.710310000000     0.559160000000     0.015290000000     0.045902   
H2       H      0.630090000000     0.559380000000     0.014230000000     0.0281136  
H3       H      0.630160000000     0.423850000000     0.970470000000     0.0280633  
H4       H      0.710370000000     0.424100000000     0.969560000000     0.0458669  
H5       H      0.772900000000     0.424110000000     0.015360000000     0.0459024  
H6       H      0.853120000000     0.423880000000     0.014430000000     0.0280812  
H7       H      0.853140000000     0.559410000000     0.970670000000     0.0280365  
H8       H      0.772930000000     0.559170000000     0.969620000000     0.0458767  
H9       H      0.272930000000     0.424040000000     0.015190000000     0.0459041  
H10      H      0.353140000000     0.423800000000     0.014150000000     0.0280949  
H11      H      0.353120000000     0.559330000000     0.970370000000     0.028048   
H12      H      0.272910000000     0.559100000000     0.969430000000     0.0458855  
H13      H      0.210380000000     0.559120000000     0.015230000000     0.0459212  
H14      H      0.130160000000     0.559370000000     0.014320000000     0.0281036  
H15      H      0.130090000000     0.423830000000     0.970580000000     0.0280646  
H16      H      0.210310000000     0.424050000000     0.969520000000     0.0458838  
H17      H      0.772860000000     0.059120000000     0.969750000000     0.045855   
H18      H      0.853080000000     0.059370000000     0.970670000000     0.0280356  
H19      H      0.853140000000     0.923840000000     0.014430000000     0.028087   
H20      H      0.772920000000     0.924060000000     0.015480000000     0.045886   
H21      H      0.710320000000     0.924050000000     0.969790000000     0.0458624  
H22      H      0.630100000000     0.923800000000     0.970800000000     0.0280411  
H23      H      0.630100000000     0.059340000000     0.014560000000     0.0280734  
H24      H      0.710320000000     0.059110000000     0.015520000000     0.0458991  
H25      H      0.210320000000     0.059160000000     0.015340000000     0.0459143  
H26      H      0.130100000000     0.059400000000     0.014320000000     0.0280891  
H27      H      0.130110000000     0.923870000000     0.970540000000     0.0280517  
H28      H      0.210320000000     0.924100000000     0.969590000000     0.0458519  
H29      H      0.272870000000     0.924080000000     0.015360000000     0.0459112  
H30      H      0.353080000000     0.923840000000     0.014440000000     0.0280894  
H31      H      0.353140000000     0.059380000000     0.970690000000     0.0280457  
H32      H      0.272920000000     0.059160000000     0.969650000000     0.0458373  
H33      H      0.424750000000     0.467240000000     0.272830000000     0.0469235  
H34      H      0.424580000000     0.467420000000     0.353570000000     0.0280606  
H35      H      0.558630000000     0.515700000000     0.353560000000     0.028059   
H36      H      0.558440000000     0.515920000000     0.272820000000     0.0469369  
H37      H      0.515890000000     0.558450000000     0.211720000000     0.0469045  
H38      H      0.515690000000     0.558630000000     0.130980000000     0.0280858  
H39      H      0.467490000000     0.424550000000     0.130970000000     0.0280842  
H40      H      0.467290000000     0.424720000000     0.211710000000     0.0469289  
H41      H      0.424800000000     0.515850000000     0.711720000000     0.0469219  
H42      H      0.424610000000     0.515640000000     0.630980000000     0.0280671  
H43      H      0.558690000000     0.467440000000     0.630970000000     0.028064   
H44      H      0.558520000000     0.467250000000     0.711710000000     0.0469104  
H45      H      0.516000000000     0.424720000000     0.772840000000     0.0469333  
H46      H      0.515800000000     0.424550000000     0.853580000000     0.0280443  
H47      H      0.467530000000     0.558600000000     0.853560000000     0.028042   
H48      H      0.467330000000     0.558410000000     0.772820000000     0.0469348  
H49      H      0.515920000000     0.058410000000     0.212100000000     0.0468865  
H50      H      0.515710000000     0.058600000000     0.131350000000     0.0280749  
H51      H      0.467420000000     0.924550000000     0.131340000000     0.0280793  
H52      H      0.467220000000     0.924720000000     0.212080000000     0.0468993  
H53      H      0.424710000000     0.967260000000     0.273210000000     0.0469155  
H54      H      0.424550000000     0.967450000000     0.353950000000     0.0280451  
H55      H      0.558640000000     0.015630000000     0.353930000000     0.0280669  
H56      H      0.558440000000     0.015840000000     0.273190000000     0.0469445  
H57      H      0.424810000000     0.015920000000     0.712090000000     0.0469226  
H58      H      0.424620000000     0.015700000000     0.631350000000     0.0280772  
H59      H      0.558670000000     0.967420000000     0.631340000000     0.0280331  
H60      H      0.558500000000     0.967240000000     0.712080000000     0.0469397  
H61      H      0.515970000000     0.924720000000     0.773200000000     0.0468994  
H62      H      0.515760000000     0.924550000000     0.853940000000     0.0280518  
H63      H      0.467550000000     0.058630000000     0.853930000000     0.0280492  
H64      H      0.467360000000     0.058450000000     0.773190000000     0.0468927  
H65      H      0.559120000000     0.772800000000     0.515370000000     0.0458944  
H66      H      0.559360000000     0.853020000000     0.514480000000     0.0280705  
H67      H      0.423820000000     0.853070000000     0.470730000000     0.0280618  
H68      H      0.424050000000     0.772860000000     0.469660000000     0.0458998  
H69      H      0.424060000000     0.710220000000     0.515300000000     0.0458982  
H70      H      0.423830000000     0.630010000000     0.514220000000     0.0280926  
H71      H      0.559360000000     0.630070000000     0.470440000000     0.0281007  
H72      H      0.559110000000     0.710290000000     0.469550000000     0.0458898  
H73      H      0.559190000000     0.210220000000     0.469600000000     0.0458849  
H74      H      0.559410000000     0.130010000000     0.470680000000     0.0281049  
H75      H      0.423890000000     0.130070000000     0.514480000000     0.0281011  
H76      H      0.424140000000     0.210290000000     0.515370000000     0.045903   
H77      H      0.424130000000     0.272800000000     0.469550000000     0.0458982  
H78      H      0.423890000000     0.353020000000     0.470440000000     0.028093   
H79      H      0.559430000000     0.353070000000     0.514170000000     0.0280864  
H80      H      0.559200000000     0.272860000000     0.515240000000     0.0459011  
H81      H      0.058510000000     0.515990000000     0.273100000000     0.046922   
H82      H      0.058670000000     0.515810000000     0.353840000000     0.0280458  
H83      H      0.924590000000     0.467610000000     0.353820000000     0.0280391  
H84      H      0.924790000000     0.467380000000     0.273080000000     0.0469231  
H85      H      0.967330000000     0.424820000000     0.212000000000     0.0469272  
H86      H      0.967530000000     0.424610000000     0.131260000000     0.0280305  
H87      H      0.015810000000     0.558670000000     0.131230000000     0.0280818  
H88      H      0.016010000000     0.558510000000     0.211970000000     0.0469345  
H89      H      0.924710000000     0.515980000000     0.711980000000     0.0469055  
H90      H      0.924540000000     0.515810000000     0.631240000000     0.0280521  
H91      H      0.058610000000     0.467560000000     0.631240000000     0.0280548  
H92      H      0.058420000000     0.467330000000     0.711980000000     0.0469232  
H93      H      0.015870000000     0.424780000000     0.773080000000     0.0469454  
H94      H      0.015680000000     0.424590000000     0.853820000000     0.0280304  
H95      H      0.967460000000     0.558660000000     0.853840000000     0.0280093  
H96      H      0.967250000000     0.558500000000     0.773100000000     0.0469124  
H97      H      0.924800000000     0.967330000000     0.273020000000     0.0469039  
H98      H      0.924600000000     0.967560000000     0.353760000000     0.0280154  
H99      H      0.058660000000     0.015820000000     0.353770000000     0.0280494  
H100     H      0.058500000000     0.015990000000     0.273030000000     0.0469456  
H101     H      0.015970000000     0.058500000000     0.211900000000     0.0469332  
H102     H      0.015770000000     0.058660000000     0.131160000000     0.0280584  
H103     H      0.967550000000     0.924590000000     0.131190000000     0.028034   
H104     H      0.967360000000     0.924780000000     0.211930000000     0.0469122  
H105     H      0.967210000000     0.058510000000     0.773040000000     0.04689    
H106     H      0.967420000000     0.058670000000     0.853780000000     0.0280178  
H107     H      0.015670000000     0.924610000000     0.853750000000     0.0280542  
H108     H      0.015860000000     0.924800000000     0.773010000000     0.0469132  
H109     H      0.058400000000     0.967360000000     0.711920000000     0.0468918  
H110     H      0.058600000000     0.967590000000     0.631180000000     0.028033   
H111     H      0.924530000000     0.015820000000     0.631170000000     0.0280649  
H112     H      0.924690000000     0.015990000000     0.711910000000     0.0469152  
H113     H      0.924090000000     0.773000000000     0.469620000000     0.0458844  
H114     H      0.923850000000     0.853210000000     0.470580000000     0.0280678  
H115     H      0.059360000000     0.853230000000     0.514400000000     0.0280708  
H116     H      0.059130000000     0.773010000000     0.515400000000     0.0458835  
H117     H      0.059150000000     0.710430000000     0.469690000000     0.0458951  
H118     H      0.059390000000     0.630210000000     0.470690000000     0.0280642  
H119     H      0.923840000000     0.630220000000     0.514400000000     0.0280739  
H120     H      0.924070000000     0.710430000000     0.515370000000     0.0459034  
H121     H      0.059130000000     0.210430000000     0.469650000000     0.0459036  
H122     H      0.059370000000     0.130220000000     0.470620000000     0.0280741  
H123     H      0.923810000000     0.130210000000     0.514310000000     0.028078   
H124     H      0.924040000000     0.210420000000     0.515310000000     0.0458808  
H125     H      0.924070000000     0.273010000000     0.469600000000     0.0459031  
H126     H      0.923840000000     0.353230000000     0.470600000000     0.0280744  
H127     H      0.059350000000     0.353210000000     0.514430000000     0.0280772  
H128     H      0.059110000000     0.273000000000     0.515400000000     0.0458964  
O1       O      0.954710000000     0.991920000000     0.555150000000    -0.546277   
O2       O      0.954750000000     0.991510000000     0.429770000000    -0.546375   
O3       O      0.954740000000     0.929140000000     0.492400000000    -0.54654    
O4       O      0.954730000000     0.054290000000     0.492520000000    -0.546298   
O5       O      0.028460000000     0.054300000000     0.492410000000    -0.546148   
O6       O      0.028470000000     0.929140000000     0.492540000000    -0.546237   
O7       O      0.028480000000     0.991910000000     0.429790000000    -0.546288   
O8       O      0.028450000000     0.991520000000     0.555170000000    -0.546231   
O9       O      0.028460000000     0.491510000000     0.555240000000    -0.545991   
O10      O      0.028480000000     0.491920000000     0.429850000000    -0.546297   
O11      O      0.028470000000     0.554290000000     0.492490000000    -0.546332   
O12      O      0.028460000000     0.429130000000     0.492600000000    -0.546377   
O13      O      0.954730000000     0.429140000000     0.492460000000    -0.546373   
O14      O      0.954740000000     0.554300000000     0.492600000000    -0.546388   
O15      O      0.954750000000     0.491530000000     0.429840000000    -0.546375   
O16      O      0.954720000000     0.491910000000     0.555220000000    -0.546293   
O17      O      0.528500000000     0.991340000000     0.555330000000    -0.546245   
O18      O      0.528480000000     0.991720000000     0.429940000000    -0.546301   
O19      O      0.528500000000     0.054110000000     0.492560000000    -0.54627    
O20      O      0.528470000000     0.928950000000     0.492700000000    -0.546374   
O21      O      0.454740000000     0.928970000000     0.492590000000    -0.546421   
O22      O      0.454770000000     0.054130000000     0.492700000000    -0.546274   
O23      O      0.454740000000     0.991350000000     0.429960000000    -0.546261   
O24      O      0.454760000000     0.991760000000     0.555340000000    -0.546286   
O25      O      0.454770000000     0.491730000000     0.554970000000    -0.546365   
O26      O      0.454750000000     0.491340000000     0.429590000000    -0.546335   
O27      O      0.454770000000     0.428950000000     0.492210000000    -0.5463     
O28      O      0.454740000000     0.554110000000     0.492350000000    -0.546285   
O29      O      0.528480000000     0.554130000000     0.492210000000    -0.546318   
O30      O      0.528510000000     0.428970000000     0.492330000000    -0.546354   
O31      O      0.528490000000     0.491760000000     0.429570000000    -0.546098   
O32      O      0.528510000000     0.491350000000     0.554960000000    -0.546278   
O33      O      0.991370000000     0.028500000000     0.929780000000    -0.546206   
O34      O      0.991830000000     0.028490000000     0.055160000000    -0.54625    
O35      O      0.054180000000     0.028500000000     0.992510000000    -0.54625    
O36      O      0.929020000000     0.028480000000     0.992440000000    -0.546349   
O37      O      0.929030000000     0.954750000000     0.992560000000    -0.546472   
O38      O      0.054190000000     0.954770000000     0.992380000000    -0.546261   
O39      O      0.991440000000     0.954760000000     0.055160000000    -0.546236   
O40      O      0.991780000000     0.954760000000     0.929780000000    -0.546297   
O41      O      0.991790000000     0.454760000000     0.929850000000    -0.546412   
O42      O      0.991450000000     0.454760000000     0.055230000000    -0.546231   
O43      O      0.929040000000     0.454770000000     0.992620000000    -0.546468   
O44      O      0.054200000000     0.454750000000     0.992450000000    -0.546339   
O45      O      0.054210000000     0.528480000000     0.992570000000    -0.546412   
O46      O      0.929050000000     0.528500000000     0.992500000000    -0.546384   
O47      O      0.991860000000     0.528500000000     0.055220000000    -0.546305   
O48      O      0.991410000000     0.528490000000     0.929840000000    -0.546241   
O49      O      0.491440000000     0.028460000000     0.929950000000    -0.546185   
O50      O      0.491790000000     0.028450000000     0.055330000000    -0.546081   
O51      O      0.554190000000     0.028440000000     0.992730000000    -0.546381   
O52      O      0.429030000000     0.028460000000     0.992560000000    -0.54642    
O53      O      0.429020000000     0.954730000000     0.992670000000    -0.546462   
O54      O      0.554180000000     0.954710000000     0.992600000000    -0.546318   
O55      O      0.491380000000     0.954710000000     0.055330000000    -0.546146   
O56      O      0.491830000000     0.954720000000     0.929950000000    -0.546242   
O57      O      0.491440000000     0.528450000000     0.929580000000    -0.546314   
O58      O      0.491800000000     0.528460000000     0.054960000000    -0.546156   
O59      O      0.554200000000     0.528470000000     0.992350000000    -0.546289   
O60      O      0.429040000000     0.528440000000     0.992190000000    -0.546401   
O61      O      0.429060000000     0.454710000000     0.992320000000    -0.546477   
O62      O      0.554210000000     0.454730000000     0.992230000000    -0.546456   
O63      O      0.491420000000     0.454720000000     0.054960000000    -0.54619    
O64      O      0.491850000000     0.454720000000     0.929580000000    -0.546422   
V1       V      0.951780000000     0.991710000000     0.492460000000     1.38686    
V2       V      0.031420000000     0.991720000000     0.492480000000     1.38681    
V3       V      0.031420000000     0.491710000000     0.492540000000     1.38683    
V4       V      0.951780000000     0.491720000000     0.492530000000     1.38678    
V5       V      0.531440000000     0.991530000000     0.492630000000     1.38656    
V6       V      0.451800000000     0.991550000000     0.492650000000     1.38677    
V7       V      0.451800000000     0.491530000000     0.492280000000     1.38698    
V8       V      0.531450000000     0.491550000000     0.492270000000     1.38674    
V9       V      0.991600000000     0.031450000000     0.992470000000     1.38689    
V10      V      0.991610000000     0.951800000000     0.992470000000     1.38657    
V11      V      0.991620000000     0.451800000000     0.992540000000     1.38678    
V12      V      0.991640000000     0.531450000000     0.992540000000     1.38675    
V13      V      0.491610000000     0.031410000000     0.992640000000     1.38701    
V14      V      0.491600000000     0.951760000000     0.992640000000     1.38666    
V15      V      0.491620000000     0.531410000000     0.992270000000     1.38665    
V16      V      0.491640000000     0.451770000000     0.992270000000     1.38703    


