data_structure

_audit_creation_method RASPA-1.0
_audit_creation_date 2023-5-19
_audit_author_name 'Poobodin Mano'

_cell_length_a    30.2846
_cell_length_b    30.2846
_cell_length_c    30.2846
_cell_angle_alpha 90
_cell_angle_beta  89.9998
_cell_angle_gamma 90
_cell_volume      27775.7

_symmetry_cell_setting          triclinic
_symmetry_space_group_name_Hall 'P 1'
_symmetry_space_group_name_H-M  'P 1'
_symmetry_Int_Tables_number     1

_symmetry_equiv_pos_as_xyz 'x,y,z'

loop_
_atom_site_label
_atom_site_type_symbol
_atom_site_fract_x
_atom_site_fract_y
_atom_site_fract_z
_atom_site_charge
C1       C      0.992400000000     0.075960000000     0.492370000000     0.434451   
C2       C      0.992410000000     0.908970000000     0.492350000000     0.434216   
C3       C      0.908910000000     0.992460000000     0.492360000000     0.434266   
C4       C      0.075890000000     0.992470000000     0.492350000000     0.434577   
C5       C      0.992420000000     0.408970000000     0.492410000000     0.434393   
C6       C      0.992430000000     0.575950000000     0.492380000000     0.434124   
C7       C      0.992440000000     0.492440000000     0.408900000000     0.434406   
C8       C      0.992420000000     0.492480000000     0.575880000000     0.434182   
C9       C      0.492390000000     0.992440000000     0.575910000000     0.43418    
C10      C      0.492410000000     0.992460000000     0.408930000000     0.434165   
C11      C      0.575890000000     0.992450000000     0.492420000000     0.434231   
C12      C      0.408910000000     0.992450000000     0.492410000000     0.434169   
C13      C      0.492400000000     0.075880000000     0.992400000000     0.434447   
C14      C      0.492470000000     0.908890000000     0.992450000000     0.434209   
C15      C      0.492440000000     0.992410000000     0.075910000000     0.434345   
C16      C      0.492430000000     0.992370000000     0.908930000000     0.434517   
C17      C      0.992390000000     0.492390000000     0.908910000000     0.434371   
C18      C      0.992430000000     0.492370000000     0.075890000000     0.434536   
C19      C      0.908920000000     0.492350000000     0.992420000000     0.434382   
C20      C      0.075900000000     0.492410000000     0.992380000000     0.434509   
C21      C      0.492350000000     0.408890000000     0.992520000000     0.434156   
C22      C      0.492460000000     0.575870000000     0.992540000000     0.434409   
C23      C      0.575900000000     0.492330000000     0.992540000000     0.434387   
C24      C      0.408920000000     0.492440000000     0.992520000000     0.434251   
C25      C      0.694460000000     0.478290000000     0.955070000000    -0.0745488  
C26      C      0.717960000000     0.492290000000     0.992520000000     0.0249587  
C27      C      0.694480000000     0.506280000000     0.029980000000    -0.0744205  
C28      C      0.648330000000     0.505960000000     0.030130000000     0.0364601  
C29      C      0.624750000000     0.492300000000     0.992540000000    -0.134476   
C30      C      0.648310000000     0.478630000000     0.954950000000     0.0364153  
C31      C      0.766860000000     0.492300000000     0.992510000000     0.0249733  
C32      C      0.790350000000     0.454850000000     0.978490000000    -0.0745556  
C33      C      0.836500000000     0.454740000000     0.978790000000     0.0363942  
C34      C      0.860070000000     0.492330000000     0.992450000000    -0.134447   
C35      C      0.836490000000     0.529910000000     0.006140000000     0.0364716  
C36      C      0.790340000000     0.529760000000     0.006500000000    -0.0744537  
C37      C      0.194480000000     0.454990000000     0.006430000000    -0.0744723  
C38      C      0.217960000000     0.492460000000     0.992450000000     0.0249838  
C39      C      0.194460000000     0.529910000000     0.978440000000    -0.0745744  
C40      C      0.148310000000     0.530030000000     0.978750000000     0.0364259  
C41      C      0.124750000000     0.492430000000     0.992400000000    -0.134504   
C42      C      0.148320000000     0.454840000000     0.006070000000     0.0365022  
C43      C      0.266860000000     0.492470000000     0.992470000000     0.0249641  
C44      C      0.290330000000     0.478460000000     0.029930000000    -0.0744258  
C45      C      0.336480000000     0.478780000000     0.030080000000     0.0364559  
C46      C      0.360070000000     0.492460000000     0.992510000000    -0.134407   
C47      C      0.336510000000     0.506150000000     0.954920000000     0.0363919  
C48      C      0.290360000000     0.506490000000     0.955030000000    -0.0745541  
C49      C      0.455050000000     0.790320000000     0.006510000000    -0.0744342  
C50      C      0.492510000000     0.766840000000     0.992530000000     0.024953   
C51      C      0.529960000000     0.790330000000     0.978510000000    -0.0745245  
C52      C      0.530080000000     0.836480000000     0.978820000000     0.0363616  
C53      C      0.492480000000     0.860040000000     0.992470000000    -0.134397   
C54      C      0.454900000000     0.836470000000     0.006160000000     0.0364542  
C55      C      0.492520000000     0.717930000000     0.992540000000     0.0249877  
C56      C      0.478510000000     0.694450000000     0.029990000000    -0.0744742  
C57      C      0.478830000000     0.648300000000     0.030130000000     0.0364747  
C58      C      0.492490000000     0.624730000000     0.992540000000    -0.134417   
C59      C      0.506180000000     0.648290000000     0.954960000000     0.0363925  
C60      C      0.506520000000     0.694440000000     0.955090000000    -0.074544   
C61      C      0.454910000000     0.194440000000     0.978440000000    -0.0745611  
C62      C      0.492350000000     0.217930000000     0.992450000000     0.0250052  
C63      C      0.529810000000     0.194460000000     0.006450000000    -0.074483   
C64      C      0.529970000000     0.148310000000     0.006090000000     0.0365157  
C65      C      0.492390000000     0.124730000000     0.992410000000    -0.134483   
C66      C      0.454790000000     0.148290000000     0.978750000000     0.0364011  
C67      C      0.492330000000     0.266840000000     0.992480000000     0.0249836  
C68      C      0.478330000000     0.290330000000     0.955030000000    -0.0745585  
C69      C      0.478660000000     0.336480000000     0.954910000000     0.0363639  
C70      C      0.492330000000     0.360040000000     0.992510000000    -0.134382   
C71      C      0.506000000000     0.336460000000     0.030090000000     0.0364592  
C72      C      0.506330000000     0.290310000000     0.029940000000    -0.0744624  
C73      C      0.506400000000     0.029870000000     0.694490000000    -0.0744522  
C74      C      0.492410000000     0.992400000000     0.717970000000     0.024947   
C75      C      0.478410000000     0.954950000000     0.694470000000    -0.0745322  
C76      C      0.478730000000     0.954830000000     0.648320000000     0.03636    
C77      C      0.492390000000     0.992430000000     0.624760000000    -0.134388   
C78      C      0.506060000000     0.030010000000     0.648340000000     0.0364694  
C79      C      0.492420000000     0.992390000000     0.766870000000     0.0249876  
C80      C      0.529870000000     0.006400000000     0.790360000000    -0.0744813  
C81      C      0.530010000000     0.006050000000     0.836510000000     0.0365433  
C82      C      0.492430000000     0.992370000000     0.860080000000    -0.134518   
C83      C      0.454840000000     0.978690000000     0.836510000000     0.0364086  
C84      C      0.454970000000     0.978370000000     0.790360000000    -0.0745764  
C85      C      0.506450000000     0.955020000000     0.290360000000    -0.0745285  
C86      C      0.492440000000     0.992460000000     0.266870000000     0.0249601  
C87      C      0.478420000000     0.029910000000     0.290350000000    -0.0743951  
C88      C      0.478740000000     0.030050000000     0.336510000000     0.03641    
C89      C      0.492420000000     0.992470000000     0.360080000000    -0.134338   
C90      C      0.506110000000     0.954880000000     0.336510000000     0.0363169  
C91      C      0.492440000000     0.992460000000     0.217970000000     0.0249822  
C92      C      0.529900000000     0.978470000000     0.194490000000    -0.0745328  
C93      C      0.530040000000     0.978780000000     0.148340000000     0.0363457  
C94      C      0.492440000000     0.992430000000     0.124760000000    -0.134398   
C95      C      0.454850000000     0.006090000000     0.148330000000     0.0365028  
C96      C      0.454980000000     0.006440000000     0.194480000000    -0.0744671  
C97      C      0.029850000000     0.478450000000     0.694460000000    -0.0744412  
C98      C      0.992400000000     0.492440000000     0.717940000000     0.0249717  
C99      C      0.954940000000     0.506450000000     0.694460000000    -0.0745272  
C100     C      0.954820000000     0.506130000000     0.648300000000     0.036329   
C101     C      0.992410000000     0.492470000000     0.624740000000    -0.134291   
C102     C      0.030000000000     0.478800000000     0.648310000000     0.0364039  
C103     C      0.992390000000     0.492430000000     0.766850000000     0.0249783  
C104     C      0.006400000000     0.454970000000     0.790320000000    -0.07444    
C105     C      0.006060000000     0.454820000000     0.836480000000     0.0364553  
C106     C      0.992380000000     0.492400000000     0.860060000000    -0.134428   
C107     C      0.978700000000     0.529990000000     0.836500000000     0.036367   
C108     C      0.978370000000     0.529870000000     0.790340000000    -0.0745477  
C109     C      0.029900000000     0.506410000000     0.290330000000    -0.0744762  
C110     C      0.992450000000     0.492390000000     0.266850000000     0.0249947  
C111     C      0.955000000000     0.478380000000     0.290330000000    -0.0745701  
C112     C      0.954860000000     0.478730000000     0.336490000000     0.0364044  
C113     C      0.992440000000     0.492430000000     0.360050000000    -0.134489   
C114     C      0.030030000000     0.506090000000     0.336480000000     0.0365155  
C115     C      0.992450000000     0.492380000000     0.217940000000     0.0249922  
C116     C      0.006440000000     0.529830000000     0.194450000000    -0.0744745  
C117     C      0.006100000000     0.529970000000     0.148300000000     0.0365234  
C118     C      0.992440000000     0.492370000000     0.124740000000    -0.134517   
C119     C      0.978780000000     0.454780000000     0.148310000000     0.0364293  
C120     C      0.978460000000     0.454920000000     0.194460000000    -0.0745554  
C121     C      0.290340000000     0.029920000000     0.506390000000    -0.0744556  
C122     C      0.266850000000     0.992470000000     0.492370000000     0.0249461  
C123     C      0.290340000000     0.955020000000     0.478370000000    -0.0745042  
C124     C      0.336490000000     0.954880000000     0.478710000000     0.0363485  
C125     C      0.360060000000     0.992460000000     0.492400000000    -0.134366   
C126     C      0.336490000000     0.030050000000     0.506070000000     0.0364507  
C127     C      0.217950000000     0.992470000000     0.492360000000     0.0250139  
C128     C      0.194460000000     0.006470000000     0.529820000000    -0.0744872  
C129     C      0.148310000000     0.006140000000     0.529950000000     0.0365375  
C130     C      0.124740000000     0.992470000000     0.492360000000    -0.134513   
C131     C      0.148320000000     0.978810000000     0.454770000000     0.0364328  
C132     C      0.194470000000     0.978480000000     0.454910000000    -0.074592   
C133     C      0.694460000000     0.029900000000     0.478400000000    -0.074465   
C134     C      0.717950000000     0.992450000000     0.492390000000     0.0250114  
C135     C      0.694470000000     0.954990000000     0.506390000000    -0.0745937  
C136     C      0.648310000000     0.954860000000     0.506070000000     0.0363916  
C137     C      0.624740000000     0.992450000000     0.492420000000    -0.134404   
C138     C      0.648310000000     0.030040000000     0.478750000000     0.0364654  
C139     C      0.766850000000     0.992450000000     0.492380000000     0.0249065  
C140     C      0.790330000000     0.006460000000     0.454930000000    -0.0743855  
C141     C      0.836490000000     0.006130000000     0.454780000000     0.0363817  
C142     C      0.860060000000     0.992450000000     0.492370000000    -0.134354   
C143     C      0.836500000000     0.978770000000     0.529960000000     0.0363226  
C144     C      0.790350000000     0.978440000000     0.529830000000    -0.0744601  
C145     C      0.006430000000     0.790400000000     0.529790000000    -0.074465   
C146     C      0.992430000000     0.766920000000     0.492340000000     0.0250189  
C147     C      0.978420000000     0.790400000000     0.454890000000    -0.0745697  
C148     C      0.978750000000     0.836550000000     0.454750000000     0.0363657  
C149     C      0.992420000000     0.860120000000     0.492340000000    -0.134402   
C150     C      0.006090000000     0.836550000000     0.529930000000     0.0364609  
C151     C      0.992430000000     0.718010000000     0.492340000000     0.024902   
C152     C      0.029880000000     0.694530000000     0.506350000000    -0.0743627  
C153     C      0.030020000000     0.648380000000     0.506030000000     0.0363555  
C154     C      0.992430000000     0.624810000000     0.492360000000    -0.134231   
C155     C      0.954840000000     0.648370000000     0.478680000000     0.0362545  
C156     C      0.954980000000     0.694520000000     0.478340000000    -0.0744348  
C157     C      0.954960000000     0.290400000000     0.506400000000    -0.0745638  
C158     C      0.992410000000     0.266920000000     0.492400000000     0.0250001  
C159     C      0.029870000000     0.290400000000     0.478400000000    -0.0744821  
C160     C      0.030010000000     0.336550000000     0.478740000000     0.0364974  
C161     C      0.992420000000     0.360120000000     0.492410000000    -0.134478   
C162     C      0.954830000000     0.336550000000     0.506080000000     0.0364022  
C163     C      0.992410000000     0.218010000000     0.492390000000     0.0249747  
C164     C      0.978400000000     0.194520000000     0.529840000000    -0.0745383  
C165     C      0.978730000000     0.148370000000     0.529970000000     0.0363859  
C166     C      0.992400000000     0.124810000000     0.492370000000    -0.13449    
C167     C      0.006070000000     0.148380000000     0.454790000000     0.0365413  
C168     C      0.006410000000     0.194530000000     0.454930000000    -0.0744793  
H1       H      0.711850000000     0.516960000000     0.059380000000     0.0466976  
H2       H      0.631140000000     0.516810000000     0.059560000000     0.0284297  
H3       H      0.631110000000     0.467790000000     0.925520000000     0.0284234  
H4       H      0.711820000000     0.467610000000     0.925670000000     0.046713   
H5       H      0.772990000000     0.425450000000     0.967810000000     0.0467063  
H6       H      0.853700000000     0.425320000000     0.967930000000     0.0284193  
H7       H      0.853680000000     0.559340000000     0.016980000000     0.0284482  
H8       H      0.772970000000     0.559150000000     0.017190000000     0.0467237  
H9       H      0.211820000000     0.559310000000     0.967780000000     0.0467261  
H10      H      0.131110000000     0.559450000000     0.967900000000     0.028423   
H11      H      0.131140000000     0.425400000000     0.016900000000     0.0284519  
H12      H      0.211840000000     0.425600000000     0.017110000000     0.0467519  
H13      H      0.272950000000     0.467770000000     0.059320000000     0.046708   
H14      H      0.353660000000     0.467930000000     0.059510000000     0.0284417  
H15      H      0.353720000000     0.517010000000     0.925490000000     0.0284316  
H16      H      0.273010000000     0.517180000000     0.925630000000     0.0467206  
H17      H      0.559360000000     0.772960000000     0.967840000000     0.0466917  
H18      H      0.559510000000     0.853670000000     0.967970000000     0.0284238  
H19      H      0.425470000000     0.853660000000     0.016990000000     0.0284559  
H20      H      0.425660000000     0.772950000000     0.017200000000     0.0467217  
H21      H      0.467830000000     0.711820000000     0.059380000000     0.0467246  
H22      H      0.467970000000     0.631110000000     0.059560000000     0.0284279  
H23      H      0.517020000000     0.631090000000     0.925530000000     0.0284282  
H24      H      0.517210000000     0.711800000000     0.925690000000     0.0467058  
H25      H      0.559200000000     0.211830000000     0.017130000000     0.0467452  
H26      H      0.559400000000     0.131120000000     0.016940000000     0.0284526  
H27      H      0.425370000000     0.131080000000     0.967900000000     0.0284343  
H28      H      0.425510000000     0.211800000000     0.967760000000     0.0467156  
H29      H      0.467650000000     0.272980000000     0.925630000000     0.0467262  
H30      H      0.467820000000     0.353690000000     0.925480000000     0.0284363  
H31      H      0.516850000000     0.353640000000     0.059520000000     0.028437   
H32      H      0.517010000000     0.272940000000     0.059330000000     0.0467288  
H33      H      0.467740000000     0.925550000000     0.711830000000     0.0467133  
H34      H      0.467890000000     0.925400000000     0.631120000000     0.0284443  
H35      H      0.516900000000     0.059450000000     0.631150000000     0.0284353  
H36      H      0.517080000000     0.059260000000     0.711860000000     0.0467197  
H37      H      0.559260000000     0.017090000000     0.772990000000     0.0467296  
H38      H      0.559440000000     0.016910000000     0.853700000000     0.0284283  
H39      H      0.425420000000     0.967830000000     0.853710000000     0.0284144  
H40      H      0.425580000000     0.967680000000     0.773000000000     0.0467207  
H41      H      0.467730000000     0.059310000000     0.272990000000     0.0467017  
H42      H      0.467880000000     0.059470000000     0.353700000000     0.028451   
H43      H      0.516960000000     0.925460000000     0.353710000000     0.0284589  
H44      H      0.517140000000     0.925630000000     0.273000000000     0.0467233  
H45      H      0.559300000000     0.967810000000     0.211860000000     0.0467102  
H46      H      0.559470000000     0.967940000000     0.131150000000     0.0284523  
H47      H      0.425410000000     0.016920000000     0.131130000000     0.0284631  
H48      H      0.425580000000     0.017110000000     0.211840000000     0.0467442  
H49      H      0.925540000000     0.517120000000     0.711820000000     0.0467113  
H50      H      0.925390000000     0.516980000000     0.631110000000     0.0284469  
H51      H      0.059430000000     0.467960000000     0.631120000000     0.0284519  
H52      H      0.059250000000     0.467780000000     0.711820000000     0.0467168  
H53      H      0.017090000000     0.425580000000     0.772950000000     0.0467226  
H54      H      0.016920000000     0.425390000000     0.853660000000     0.0284465  
H55      H      0.967840000000     0.559410000000     0.853700000000     0.0284237  
H56      H      0.967680000000     0.559270000000     0.772990000000     0.0467037  
H57      H      0.925610000000     0.467690000000     0.272970000000     0.0467326  
H58      H      0.925430000000     0.467890000000     0.353680000000     0.0284234  
H59      H      0.059460000000     0.516950000000     0.353680000000     0.0284237  
H60      H      0.059300000000     0.517090000000     0.272970000000     0.0467247  
H61      H      0.017110000000     0.559230000000     0.211810000000     0.0467414  
H62      H      0.016940000000     0.559400000000     0.131110000000     0.0284399  
H63      H      0.967950000000     0.425340000000     0.131120000000     0.0284211  
H64      H      0.967790000000     0.425520000000     0.211830000000     0.0467112  
H65      H      0.272970000000     0.925630000000     0.467670000000     0.0467046  
H66      H      0.353680000000     0.925450000000     0.467860000000     0.0284504  
H67      H      0.353680000000     0.059470000000     0.516930000000     0.0284367  
H68      H      0.272980000000     0.059310000000     0.517070000000     0.0467335  
H69      H      0.211820000000     0.017140000000     0.559220000000     0.0467443  
H70      H      0.131110000000     0.016980000000     0.559380000000     0.0284514  
H71      H      0.131120000000     0.967970000000     0.425330000000     0.0284289  
H72      H      0.211830000000     0.967810000000     0.425510000000     0.0467289  
H73      H      0.711830000000     0.925600000000     0.517060000000     0.0467435  
H74      H      0.631120000000     0.925430000000     0.516920000000     0.0284367  
H75      H      0.631110000000     0.059470000000     0.467910000000     0.0284419  
H76      H      0.711820000000     0.059300000000     0.467720000000     0.0467189  
H77      H      0.772960000000     0.017140000000     0.425540000000     0.0467146  
H78      H      0.853670000000     0.016980000000     0.425360000000     0.02847    
H79      H      0.853700000000     0.967920000000     0.559380000000     0.028441   
H80      H      0.772980000000     0.967750000000     0.559230000000     0.0466683  
H81      H      0.967750000000     0.773040000000     0.425490000000     0.0467159  
H82      H      0.967900000000     0.853750000000     0.425330000000     0.0284293  
H83      H      0.016930000000     0.853750000000     0.559360000000     0.028449   
H84      H      0.017110000000     0.773040000000     0.559190000000     0.0467247  
H85      H      0.059280000000     0.711900000000     0.517030000000     0.0466835  
H86      H      0.059450000000     0.631190000000     0.516880000000     0.0284629  
H87      H      0.925420000000     0.631180000000     0.467840000000     0.0284675  
H88      H      0.925580000000     0.711890000000     0.467650000000     0.0466725  
H89      H      0.059260000000     0.273030000000     0.467720000000     0.0467339  
H90      H      0.059440000000     0.353740000000     0.467900000000     0.0284243  
H91      H      0.925400000000     0.353750000000     0.516920000000     0.028428   
H92      H      0.925560000000     0.273040000000     0.517080000000     0.0467212  
H93      H      0.967720000000     0.211880000000     0.559240000000     0.0467082  
H94      H      0.967880000000     0.131170000000     0.559390000000     0.0284388  
H95      H      0.016920000000     0.131190000000     0.425360000000     0.0284438  
H96      H      0.017090000000     0.211900000000     0.425540000000     0.0467454  
O1       O      0.993540000000     0.055140000000     0.455460000000    -0.546155   
O2       O      0.991260000000     0.929790000000     0.455440000000    -0.546038   
O3       O      0.929720000000     0.993610000000     0.455450000000    -0.546093   
O4       O      0.055080000000     0.991330000000     0.455450000000    -0.546178   
O5       O      0.055080000000     0.993610000000     0.529260000000    -0.546157   
O6       O      0.929730000000     0.991310000000     0.529270000000    -0.546183   
O7       O      0.993550000000     0.929790000000     0.529260000000    -0.546191   
O8       O      0.991250000000     0.055140000000     0.529270000000    -0.546131   
O9       O      0.955520000000     0.429790000000     0.493550000000    -0.546262   
O10      O      0.955520000000     0.555140000000     0.491230000000    -0.546054   
O11      O      0.955530000000     0.491310000000     0.429710000000    -0.546116   
O12      O      0.955510000000     0.493620000000     0.555070000000    -0.546062   
O13      O      0.029330000000     0.491330000000     0.555070000000    -0.546168   
O14      O      0.029340000000     0.493590000000     0.429720000000    -0.546153   
O15      O      0.029340000000     0.555140000000     0.493530000000    -0.546045   
O16      O      0.029330000000     0.429790000000     0.491270000000    -0.546178   
O17      O      0.491250000000     0.955530000000     0.555090000000    -0.546036   
O18      O      0.493550000000     0.955550000000     0.429740000000    -0.546149   
O19      O      0.555080000000     0.955540000000     0.493560000000    -0.546069   
O20      O      0.429720000000     0.955540000000     0.491260000000    -0.546038   
O21      O      0.429730000000     0.029360000000     0.493560000000    -0.546114   
O22      O      0.555080000000     0.029360000000     0.491280000000    -0.546065   
O23      O      0.491260000000     0.029370000000     0.429750000000    -0.545994   
O24      O      0.493540000000     0.029350000000     0.555100000000    -0.546162   
O25      O      0.455510000000     0.055050000000     0.991260000000    -0.546176   
O26      O      0.455550000000     0.929700000000     0.993590000000    -0.54614    
O27      O      0.455530000000     0.993530000000     0.055100000000    -0.546094   
O28      O      0.455530000000     0.991210000000     0.929750000000    -0.546328   
O29      O      0.529340000000     0.993530000000     0.929740000000    -0.546154   
O30      O      0.529350000000     0.991270000000     0.055100000000    -0.546041   
O31      O      0.529370000000     0.929720000000     0.991290000000    -0.546074   
O32      O      0.529320000000     0.055070000000     0.993550000000    -0.546112   
O33      O      0.993550000000     0.455480000000     0.929720000000    -0.546319   
O34      O      0.991290000000     0.455470000000     0.055070000000    -0.546199   
O35      O      0.929750000000     0.455450000000     0.991260000000    -0.54632    
O36      O      0.055090000000     0.455500000000     0.993530000000    -0.546285   
O37      O      0.055070000000     0.529310000000     0.991240000000    -0.54614    
O38      O      0.929720000000     0.529270000000     0.993560000000    -0.546261   
O39      O      0.993550000000     0.529280000000     0.055070000000    -0.546246   
O40      O      0.991240000000     0.529300000000     0.929730000000    -0.546258   
O41      O      0.491230000000     0.429720000000     0.955610000000    -0.546165   
O42      O      0.493600000000     0.555060000000     0.955630000000    -0.546309   
O43      O      0.555080000000     0.491200000000     0.955630000000    -0.54625    
O44      O      0.429740000000     0.493570000000     0.955610000000    -0.546242   
O45      O      0.429730000000     0.491280000000     0.029430000000    -0.546173   
O46      O      0.555080000000     0.493480000000     0.029440000000    -0.546137   
O47      O      0.491300000000     0.555050000000     0.029440000000    -0.54626    
O48      O      0.493500000000     0.429700000000     0.029430000000    -0.546034   
V1       V      0.992400000000     0.992470000000     0.452480000000     1.38619    
V2       V      0.992400000000     0.992460000000     0.532230000000     1.38647    
V3       V      0.952550000000     0.492460000000     0.492390000000     1.38623    
V4       V      0.032300000000     0.492460000000     0.492400000000     1.38681    
V5       V      0.492400000000     0.952580000000     0.492410000000     1.38626    
V6       V      0.492400000000     0.032330000000     0.492430000000     1.38666    
V7       V      0.452560000000     0.992370000000     0.992420000000     1.38645    
V8       V      0.532310000000     0.992400000000     0.992420000000     1.38621    
V9       V      0.992420000000     0.452500000000     0.992390000000     1.38677    
V10      V      0.992390000000     0.532260000000     0.992400000000     1.38669    
V11      V      0.492410000000     0.492390000000     0.952650000000     1.38682    
V12      V      0.492400000000     0.492380000000     0.032400000000     1.38677    


