data_structure

_audit_creation_method RASPA-1.0
_audit_creation_date 2023-5-19
_audit_author_name 'Poobodin Mano'

_cell_length_a    38.9134
_cell_length_b    38.9244
_cell_length_c    38.8925
_cell_angle_alpha 90
_cell_angle_beta  89.9998
_cell_angle_gamma 90
_cell_volume      58909.7

_symmetry_cell_setting          triclinic
_symmetry_space_group_name_Hall 'P 1'
_symmetry_space_group_name_H-M  'P 1'
_symmetry_Int_Tables_number     1

_symmetry_equiv_pos_as_xyz 'x,y,z'

loop_
_atom_site_label
_atom_site_type_symbol
_atom_site_fract_x
_atom_site_fract_y
_atom_site_fract_z
_atom_site_charge
C1       C      0.016850000000     0.081210000000     0.518190000000     0.435493   
C2       C      0.017670000000     0.951320000000     0.515080000000     0.435413   
C3       C      0.952280000000     0.015910000000     0.516710000000     0.434988   
C4       C      0.082210000000     0.016620000000     0.516560000000     0.435386   
C5       C      0.017150000000     0.451300000000     0.517310000000     0.435548   
C6       C      0.018320000000     0.581210000000     0.515850000000     0.435306   
C7       C      0.017850000000     0.515750000000     0.451610000000     0.435873   
C8       C      0.017620000000     0.516740000000     0.581550000000     0.435868   
C9       C      0.517270000000     0.017970000000     0.581910000000     0.435394   
C10      C      0.517360000000     0.014850000000     0.452000000000     0.435171   
C11      C      0.582220000000     0.016280000000     0.517010000000     0.435034   
C12      C      0.452310000000     0.016540000000     0.516900000000     0.43484    
C13      C      0.514640000000     0.081330000000     0.017110000000     0.434449   
C14      C      0.514640000000     0.951410000000     0.016800000000     0.434443   
C15      C      0.514670000000     0.016040000000     0.081930000000     0.435226   
C16      C      0.514630000000     0.016700000000     0.951980000000     0.435309   
C17      C      0.016140000000     0.515320000000     0.951630000000     0.435617   
C18      C      0.016330000000     0.517210000000     0.081550000000     0.435521   
C19      C      0.951270000000     0.516300000000     0.016680000000     0.434789   
C20      C      0.081180000000     0.516230000000     0.016510000000     0.435814   
C21      C      0.515950000000     0.451420000000     0.015800000000     0.434246   
C22      C      0.515920000000     0.581320000000     0.017840000000     0.434505   
C23      C      0.580900000000     0.516380000000     0.016840000000     0.434839   
C24      C      0.450990000000     0.516350000000     0.016790000000     0.435376   
C25      C      0.618970000000     0.516390000000     0.016850000000    -0.136187   
C26      C      0.637350000000     0.515110000000     0.047960000000     0.0385653  
C27      C      0.673260000000     0.515060000000     0.047950000000    -0.0795378  
C28      C      0.691620000000     0.516400000000     0.016860000000     0.0355532  
C29      C      0.673270000000     0.517730000000     0.985770000000    -0.0794795  
C30      C      0.637360000000     0.517670000000     0.985750000000     0.0386788  
C31      C      0.729780000000     0.516400000000     0.016860000000    -0.0032577  
C32      C      0.748140000000     0.494420000000     0.038890000000    -0.0374563  
C33      C      0.784040000000     0.494360000000     0.038830000000    -0.037447   
C34      C      0.802390000000     0.516380000000     0.016840000000    -0.00328016 
C35      C      0.784040000000     0.538410000000     0.994860000000    -0.0373436  
C36      C      0.748130000000     0.538380000000     0.994830000000    -0.0373773  
C37      C      0.840550000000     0.516360000000     0.016810000000     0.0356754  
C38      C      0.858890000000     0.485280000000     0.018110000000    -0.0796339  
C39      C      0.894800000000     0.485250000000     0.018010000000     0.0385956  
C40      C      0.913200000000     0.516320000000     0.016730000000    -0.136066   
C41      C      0.894830000000     0.547410000000     0.015490000000     0.0385696  
C42      C      0.858920000000     0.547420000000     0.015470000000    -0.0795973  
C43      C      0.413070000000     0.516340000000     0.016760000000    -0.137306   
C44      C      0.394800000000     0.532320000000     0.990010000000     0.039787   
C45      C      0.358890000000     0.532660000000     0.990210000000    -0.0802391  
C46      C      0.340700000000     0.516300000000     0.016700000000     0.036061   
C47      C      0.358860000000     0.499970000000     0.043230000000    -0.0803241  
C48      C      0.394770000000     0.500340000000     0.043490000000     0.0396457  
C49      C      0.302780000000     0.516280000000     0.016670000000    -0.00332971 
C50      C      0.284590000000     0.547350000000     0.016890000000    -0.0379867  
C51      C      0.248680000000     0.547360000000     0.017250000000    -0.0370063  
C52      C      0.230180000000     0.516240000000     0.016580000000    -0.0032801  
C53      C      0.248720000000     0.485140000000     0.015950000000    -0.0369931  
C54      C      0.284620000000     0.485190000000     0.016390000000    -0.0379907  
C55      C      0.191810000000     0.516220000000     0.016530000000     0.0355791  
C56      C      0.173290000000     0.542700000000     0.000190000000    -0.0793287  
C57      C      0.137380000000     0.542890000000     0.000530000000     0.0395417  
C58      C      0.119110000000     0.516220000000     0.016490000000    -0.137145   
C59      C      0.137370000000     0.489540000000     0.032470000000     0.0395356  
C60      C      0.173280000000     0.489740000000     0.032850000000    -0.0791839  
C61      C      0.515990000000     0.619270000000     0.018350000000    -0.136344   
C62      C      0.500150000000     0.637300000000     0.045350000000     0.0391463  
C63      C      0.499670000000     0.673240000000     0.045390000000    -0.0798332  
C64      C      0.515790000000     0.691680000000     0.018910000000     0.0357445  
C65      C      0.532060000000     0.673740000000     0.992190000000    -0.0798901  
C66      C      0.531790000000     0.637830000000     0.991680000000     0.039426   
C67      C      0.515560000000     0.729630000000     0.019040000000    -0.00313157 
C68      C      0.484380000000     0.747620000000     0.018070000000    -0.0380903  
C69      C      0.484150000000     0.783540000000     0.017360000000    -0.0369318  
C70      C      0.515140000000     0.802280000000     0.018420000000    -0.00322683 
C71      C      0.546330000000     0.783910000000     0.019900000000    -0.0368758  
C72      C      0.546520000000     0.748000000000     0.019790000000    -0.0381151  
C73      C      0.514950000000     0.840700000000     0.017900000000     0.0354574  
C74      C      0.487860000000     0.859330000000     0.033100000000    -0.0789016  
C75      C      0.487540000000     0.895240000000     0.032290000000     0.0393872  
C76      C      0.514660000000     0.913460000000     0.017020000000    -0.136168   
C77      C      0.541900000000     0.895090000000     0.002140000000     0.0393146  
C78      C      0.541850000000     0.859180000000     0.002190000000    -0.0789439  
C79      C      0.516040000000     0.413470000000     0.015300000000    -0.136207   
C80      C      0.531820000000     0.394920000000     0.041980000000     0.0393216  
C81      C      0.532090000000     0.359010000000     0.041490000000    -0.0799754  
C82      C      0.515840000000     0.341050000000     0.014770000000     0.0357281  
C83      C      0.499740000000     0.359480000000     0.988270000000    -0.0796892  
C84      C      0.500210000000     0.395420000000     0.988290000000     0.0391038  
C85      C      0.515590000000     0.303110000000     0.014670000000    -0.00315525 
C86      C      0.546550000000     0.284730000000     0.013930000000    -0.0380765  
C87      C      0.546360000000     0.248820000000     0.013860000000    -0.036899   
C88      C      0.515160000000     0.230450000000     0.015370000000    -0.0032457  
C89      C      0.484180000000     0.249210000000     0.016410000000    -0.0368968  
C90      C      0.484410000000     0.285120000000     0.015660000000    -0.0380936  
C91      C      0.514960000000     0.192040000000     0.015920000000     0.035438   
C92      C      0.541860000000     0.173570000000     0.031640000000    -0.0788088  
C93      C      0.541900000000     0.137650000000     0.031730000000     0.0393582  
C94      C      0.514660000000     0.119280000000     0.016860000000    -0.136162   
C95      C      0.487540000000     0.137490000000     0.001580000000     0.0392662  
C96      C      0.487870000000     0.173400000000     0.000740000000    -0.0789347  
C97      C      0.517360000000     0.018680000000     0.619860000000    -0.136941   
C98      C      0.501560000000     0.045660000000     0.637810000000     0.0395757  
C99      C      0.500830000000     0.045660000000     0.673770000000    -0.0788557  
C100     C      0.516610000000     0.019060000000     0.692620000000     0.0355591  
C101     C      0.533020000000     0.992450000000     0.674370000000    -0.0791092  
C102     C      0.533010000000     0.992060000000     0.638470000000     0.0400312  
C103     C      0.515880000000     0.018920000000     0.731020000000    -0.00326947 
C104     C      0.516300000000     0.049920000000     0.749770000000    -0.0368993  
C105     C      0.515490000000     0.049650000000     0.785710000000    -0.0378645  
C106     C      0.515030000000     0.018450000000     0.803680000000    -0.00339936 
C107     C      0.514840000000     0.987500000000     0.785300000000    -0.0378489  
C108     C      0.514840000000     0.987700000000     0.749380000000    -0.0368457  
C109     C      0.514930000000     0.018110000000     0.841620000000     0.0363662  
C110     C      0.487840000000     0.033320000000     0.859910000000    -0.0802118  
C111     C      0.487480000000     0.032450000000     0.895850000000     0.0398021  
C112     C      0.514680000000     0.017110000000     0.914030000000    -0.136797   
C113     C      0.541990000000     0.002300000000     0.895630000000     0.0399294  
C114     C      0.541900000000     0.002420000000     0.859690000000    -0.0804237  
C115     C      0.517470000000     0.014130000000     0.414050000000    -0.136784   
C116     C      0.501580000000     0.987200000000     0.396100000000     0.0395988  
C117     C      0.500850000000     0.987200000000     0.360140000000    -0.0787267  
C118     C      0.516730000000     0.013740000000     0.341290000000     0.0355059  
C119     C      0.533230000000     0.040300000000     0.359540000000    -0.0790938  
C120     C      0.533220000000     0.040700000000     0.395450000000     0.0397829  
C121     C      0.516010000000     0.013880000000     0.302890000000    -0.00326066 
C122     C      0.516320000000     0.982880000000     0.284150000000    -0.0368032  
C123     C      0.515500000000     0.983140000000     0.248210000000    -0.0378368  
C124     C      0.515140000000     0.014340000000     0.230230000000    -0.00330239 
C125     C      0.515060000000     0.045300000000     0.248610000000    -0.038      
C126     C      0.515070000000     0.045100000000     0.284530000000    -0.0369013  
C127     C      0.515020000000     0.014670000000     0.192300000000     0.0360828  
C128     C      0.487910000000     0.999470000000     0.174020000000    -0.0798402  
C129     C      0.487540000000     0.000330000000     0.138080000000     0.0394884  
C130     C      0.514730000000     0.015640000000     0.119880000000    -0.136706   
C131     C      0.542060000000     0.030450000000     0.138270000000     0.0398744  
C132     C      0.541980000000     0.030340000000     0.174200000000    -0.0801669  
C133     C      0.016010000000     0.514860000000     0.913680000000    -0.136903   
C134     C      0.031730000000     0.487840000000     0.895590000000     0.0396352  
C135     C      0.032170000000     0.487860000000     0.859640000000    -0.0801228  
C136     C      0.016150000000     0.514420000000     0.841260000000     0.0362485  
C137     C      0.000000000000     0.541150000000     0.859250000000    -0.08038    
C138     C      0.000290000000     0.541600000000     0.895180000000     0.0397247  
C139     C      0.016410000000     0.514390000000     0.803320000000    -0.00338213 
C140     C      0.047620000000     0.515010000000     0.785350000000    -0.0379666  
C141     C      0.047890000000     0.515800000000     0.749430000000    -0.0368946  
C142     C      0.016900000000     0.515160000000     0.730660000000    -0.00329776 
C143     C      0.985670000000     0.514040000000     0.748990000000    -0.036812   
C144     C      0.985450000000     0.514070000000     0.784920000000    -0.0378609  
C145     C      0.017150000000     0.515700000000     0.692260000000     0.0355697  
C146     C      0.043940000000     0.499940000000     0.673670000000    -0.0790946  
C147     C      0.044320000000     0.500740000000     0.637750000000     0.0398363  
C148     C      0.017540000000     0.516570000000     0.619500000000    -0.137064   
C149     C      0.990600000000     0.532020000000     0.637830000000     0.0399323  
C150     C      0.990600000000     0.531950000000     0.673760000000    -0.0789128  
C151     C      0.016300000000     0.517670000000     0.119500000000    -0.136957   
C152     C      0.032150000000     0.544630000000     0.137540000000     0.0396833  
C153     C      0.032670000000     0.544620000000     0.173500000000    -0.0801709  
C154     C      0.016590000000     0.518110000000     0.191910000000     0.0362322  
C155     C      0.000310000000     0.491430000000     0.173950000000    -0.0804084  
C156     C      0.000530000000     0.490980000000     0.138030000000     0.0397594  
C157     C      0.016880000000     0.518170000000     0.229840000000    -0.00339261 
C158     C      0.048080000000     0.517090000000     0.247790000000    -0.0379671  
C159     C      0.048350000000     0.516300000000     0.283720000000    -0.0369049  
C160     C      0.017370000000     0.517370000000     0.302500000000    -0.00330816 
C161     C      0.986160000000     0.518970000000     0.284180000000    -0.0368267  
C162     C      0.985930000000     0.518950000000     0.248250000000    -0.0378824  
C163     C      0.017610000000     0.516780000000     0.340900000000     0.0356033  
C164     C      0.044620000000     0.532100000000     0.359520000000    -0.0790752  
C165     C      0.044940000000     0.531290000000     0.395450000000     0.0398075  
C166     C      0.017890000000     0.515870000000     0.413650000000    -0.136981   
C167     C      0.990750000000     0.500840000000     0.395290000000     0.0399584  
C168     C      0.990800000000     0.500910000000     0.359360000000    -0.078997   
C169     C      0.414350000000     0.016610000000     0.516830000000    -0.136552   
C170     C      0.396000000000     0.990040000000     0.532870000000     0.0394035  
C171     C      0.360070000000     0.990280000000     0.533150000000    -0.0787894  
C172     C      0.341600000000     0.016690000000     0.516650000000     0.0353379  
C173     C      0.360220000000     0.043070000000     0.500260000000    -0.0788324  
C174     C      0.396140000000     0.043230000000     0.500710000000     0.0393083  
C175     C      0.303190000000     0.016720000000     0.516540000000    -0.00321008 
C176     C      0.284620000000     0.985620000000     0.516230000000    -0.0368559  
C177     C      0.248700000000     0.985680000000     0.516580000000    -0.0378415  
C178     C      0.230530000000     0.016770000000     0.516440000000    -0.00334029 
C179     C      0.248740000000     0.047830000000     0.516320000000    -0.0379096  
C180     C      0.284660000000     0.047850000000     0.516780000000    -0.0369509  
C181     C      0.192590000000     0.016780000000     0.516470000000     0.0361464  
C182     C      0.174430000000     0.000920000000     0.543300000000    -0.0801787  
C183     C      0.138500000000     0.001250000000     0.543560000000     0.0395052  
C184     C      0.120170000000     0.016710000000     0.516530000000    -0.136498   
C185     C      0.138420000000     0.032220000000     0.489490000000     0.0396836  
C186     C      0.174350000000     0.032620000000     0.489680000000    -0.0800752  
C187     C      0.914330000000     0.015830000000     0.516760000000    -0.136314   
C188     C      0.895990000000     0.031440000000     0.489830000000     0.0394811  
C189     C      0.860060000000     0.031800000000     0.490130000000    -0.0799063  
C190     C      0.841920000000     0.015820000000     0.516890000000     0.0358743  
C191     C      0.860160000000     0.999810000000     0.543570000000    -0.0796656  
C192     C      0.896090000000     0.000190000000     0.543740000000     0.039297   
C193     C      0.803990000000     0.015870000000     0.516980000000    -0.00321979 
C194     C      0.785860000000     0.046970000000     0.517790000000    -0.0380299  
C195     C      0.749950000000     0.047050000000     0.518230000000    -0.0368564  
C196     C      0.731340000000     0.015990000000     0.517040000000    -0.00327444 
C197     C      0.749840000000     0.984870000000     0.515840000000    -0.0367543  
C198     C      0.785760000000     0.984830000000     0.516220000000    -0.0379322  
C199     C      0.692930000000     0.016070000000     0.517040000000     0.0355136  
C200     C      0.674430000000     0.043000000000     0.501430000000    -0.0789518  
C201     C      0.638510000000     0.043260000000     0.501800000000     0.0397549  
C202     C      0.620170000000     0.016210000000     0.517020000000    -0.136599   
C203     C      0.638400000000     0.989080000000     0.532260000000     0.0397571  
C204     C      0.674320000000     0.989200000000     0.532640000000    -0.0787921  
C205     C      0.018650000000     0.619250000000     0.515110000000    -0.136473   
C206     C      0.049880000000     0.637380000000     0.516340000000     0.0388199  
C207     C      0.050180000000     0.673270000000     0.515600000000    -0.0796925  
C208     C      0.019280000000     0.691840000000     0.513540000000     0.0357129  
C209     C      0.988060000000     0.673730000000     0.512230000000    -0.0795433  
C210     C      0.987740000000     0.637850000000     0.513050000000     0.0389465  
C211     C      0.019570000000     0.729970000000     0.513030000000    -0.00327897 
C212     C      0.041490000000     0.748400000000     0.535050000000    -0.0374511  
C213     C      0.041420000000     0.784280000000     0.534980000000    -0.0374381  
C214     C      0.019490000000     0.802550000000     0.512840000000    -0.00331563 
C215     C      0.997770000000     0.784140000000     0.490610000000    -0.0372934  
C216     C      0.997760000000     0.748240000000     0.490760000000    -0.0373419  
C217     C      0.019010000000     0.840680000000     0.513260000000     0.0357999  
C218     C      0.019940000000     0.858580000000     0.544620000000    -0.0798527  
C219     C      0.019440000000     0.894440000000     0.545160000000     0.0388256  
C220     C      0.018060000000     0.913280000000     0.514340000000    -0.136416   
C221     C      0.017110000000     0.895380000000     0.482950000000     0.0387726  
C222     C      0.017530000000     0.859460000000     0.482430000000    -0.079574   
C223     C      0.016790000000     0.413260000000     0.518040000000    -0.136544   
C224     C      0.985510000000     0.395180000000     0.517550000000     0.0390423  
C225     C      0.985160000000     0.359300000000     0.518280000000    -0.0796202  
C226     C      0.016070000000     0.340670000000     0.519610000000     0.0357277  
C227     C      0.047350000000     0.358720000000     0.520200000000    -0.0796474  
C228     C      0.047710000000     0.394610000000     0.519370000000     0.0388713  
C229     C      0.015710000000     0.302540000000     0.520110000000    -0.00326838 
C230     C      0.993310000000     0.284180000000     0.498530000000    -0.0373036  
C231     C      0.993260000000     0.248310000000     0.498620000000    -0.0373208  
C232     C      0.015540000000     0.229970000000     0.520360000000    -0.00332831 
C233     C      0.037740000000     0.248320000000     0.542150000000    -0.0373857  
C234     C      0.037880000000     0.284220000000     0.541980000000    -0.0374031  
C235     C      0.015860000000     0.191840000000     0.519960000000     0.0358248  
C236     C      0.014410000000     0.173930000000     0.488630000000    -0.0798705  
C237     C      0.014780000000     0.138070000000     0.488100000000     0.0388136  
C238     C      0.016540000000     0.119250000000     0.518920000000    -0.13646    
C239     C      0.017990000000     0.137170000000     0.550280000000     0.0388613  
C240     C      0.017720000000     0.173080000000     0.550790000000    -0.0796574  
H1       H      0.624040000000     0.514150000000     0.072400000000     0.0284154  
H2       H      0.686660000000     0.514420000000     0.072360000000     0.0474306  
H3       H      0.686680000000     0.518380000000     0.961370000000     0.0474661  
H4       H      0.624060000000     0.518620000000     0.961310000000     0.0284178  
H5       H      0.734740000000     0.476960000000     0.055930000000     0.036556   
H6       H      0.797440000000     0.477320000000     0.056290000000     0.0365554  
H7       H      0.797430000000     0.555450000000     0.977390000000     0.0365872  
H8       H      0.734730000000     0.555840000000     0.977790000000     0.0365774  
H9       H      0.845480000000     0.460910000000     0.018750000000     0.0474966  
H10      H      0.908090000000     0.460820000000     0.018930000000     0.0284223  
H11      H      0.908150000000     0.571820000000     0.014530000000     0.0284295  
H12      H      0.845530000000     0.571810000000     0.014860000000     0.0474579  
H13      H      0.408280000000     0.544970000000     0.969180000000     0.0267153  
H14      H      0.345290000000     0.545320000000     0.969460000000     0.0484883  
H15      H      0.345240000000     0.487290000000     0.063950000000     0.048493   
H16      H      0.408220000000     0.487700000000     0.064340000000     0.0267192  
H17      H      0.298200000000     0.571640000000     0.017400000000     0.0375045  
H18      H      0.235550000000     0.571840000000     0.018520000000     0.0361125  
H19      H      0.235610000000     0.460650000000     0.014650000000     0.0361082  
H20      H      0.298260000000     0.460920000000     0.015910000000     0.0375121  
H21      H      0.186420000000     0.563140000000     0.986670000000     0.0471936  
H22      H      0.123910000000     0.563610000000     0.987710000000     0.0267339  
H23      H      0.123890000000     0.468830000000     0.045280000000     0.0266589  
H24      H      0.186400000000     0.469300000000     0.046390000000     0.0470729  
H25      H      0.487640000000     0.623640000000     0.066140000000     0.0267499  
H26      H      0.487050000000     0.686660000000     0.066280000000     0.048497   
H27      H      0.544560000000     0.687540000000     0.971480000000     0.0484141  
H28      H      0.544330000000     0.624590000000     0.970640000000     0.0265445  
H29      H      0.460190000000     0.733860000000     0.017170000000     0.0376275  
H30      H      0.459610000000     0.796480000000     0.015440000000     0.0361324  
H31      H      0.570730000000     0.797160000000     0.021560000000     0.0361735  
H32      H      0.570860000000     0.734520000000     0.020810000000     0.037761   
H33      H      0.467040000000     0.846310000000     0.046140000000     0.0469279  
H34      H      0.466370000000     0.908780000000     0.044290000000     0.0260943  
H35      H      0.563000000000     0.908510000000     0.989880000000     0.026195   
H36      H      0.562780000000     0.846000000000     0.989470000000     0.0469776  
H37      H      0.544350000000     0.408170000000     0.063020000000     0.0265519  
H38      H      0.544580000000     0.345220000000     0.062210000000     0.0484021  
H39      H      0.487120000000     0.346050000000     0.967390000000     0.0484999  
H40      H      0.487720000000     0.409080000000     0.967490000000     0.0267833  
H41      H      0.570900000000     0.298200000000     0.012900000000     0.0377513  
H42      H      0.570750000000     0.235560000000     0.012210000000     0.0361911  
H43      H      0.459630000000     0.236280000000     0.018340000000     0.0361028  
H44      H      0.460230000000     0.298900000000     0.016550000000     0.0376185  
H45      H      0.562800000000     0.186750000000     0.044350000000     0.0468426  
H46      H      0.563000000000     0.124250000000     0.044000000000     0.0260679  
H47      H      0.466370000000     0.123940000000     0.989600000000     0.0261831  
H48      H      0.467040000000     0.186420000000     0.987700000000     0.0469918  
H49      H      0.489040000000     0.066380000000     0.624060000000     0.0265615  
H50      H      0.487340000000     0.066280000000     0.686660000000     0.0471823  
H51      H      0.546250000000     0.971950000000     0.687720000000     0.0469932  
H52      H      0.545750000000     0.971120000000     0.625240000000     0.0260535  
H53      H      0.517790000000     0.074470000000     0.736800000000     0.0363535  
H54      H      0.515890000000     0.073830000000     0.799520000000     0.0378477  
H55      H      0.514180000000     0.963140000000     0.798770000000     0.0377591  
H56      H      0.513630000000     0.963300000000     0.736110000000     0.0361811  
H57      H      0.466760000000     0.045470000000     0.846360000000     0.0485644  
H58      H      0.466210000000     0.044220000000     0.909410000000     0.0261181  
H59      H      0.563190000000     0.990180000000     0.909000000000     0.0262407  
H60      H      0.563060000000     0.990610000000     0.845980000000     0.0487173  
H61      H      0.488970000000     0.966540000000     0.409850000000     0.0266124  
H62      H      0.487290000000     0.966630000000     0.347250000000     0.047198   
H63      H      0.546540000000     0.060750000000     0.346190000000     0.0469461  
H64      H      0.546020000000     0.061590000000     0.408670000000     0.0260762  
H65      H      0.517730000000     0.958330000000     0.297120000000     0.0363552  
H66      H      0.515810000000     0.958960000000     0.234410000000     0.0378637  
H67      H      0.514470000000     0.069660000000     0.235140000000     0.0377574  
H68      H      0.513940000000     0.069510000000     0.297800000000     0.0361651  
H69      H      0.466830000000     0.987340000000     0.187580000000     0.0485234  
H70      H      0.466250000000     0.988570000000     0.124530000000     0.0262774  
H71      H      0.563270000000     0.042540000000     0.124870000000     0.0261498  
H72      H      0.563160000000     0.042140000000     0.187900000000     0.0485283  
H73      H      0.044170000000     0.467000000000     0.909230000000     0.0267511  
H74      H      0.044700000000     0.466960000000     0.846160000000     0.0486227  
H75      H      0.987590000000     0.561930000000     0.845480000000     0.0485957  
H76      H      0.987850000000     0.562660000000     0.908480000000     0.0266071  
H77      H      0.071800000000     0.515590000000     0.799150000000     0.0377006  
H78      H      0.072460000000     0.517420000000     0.736490000000     0.0361669  
H79      H      0.961280000000     0.512730000000     0.735690000000     0.0362614  
H80      H      0.961080000000     0.513330000000     0.798380000000     0.0377505  
H81      H      0.064470000000     0.486480000000     0.686740000000     0.0470709  
H82      H      0.065250000000     0.488300000000     0.624230000000     0.0263861  
H83      H      0.969780000000     0.544700000000     0.624380000000     0.0264419  
H84      H      0.969910000000     0.545080000000     0.686940000000     0.0470466  
H85      H      0.044630000000     0.565430000000     0.123880000000     0.0266975  
H86      H      0.045300000000     0.565470000000     0.186950000000     0.0486798  
H87      H      0.987840000000     0.470710000000     0.187760000000     0.0485968  
H88      H      0.987980000000     0.469970000000     0.124750000000     0.0265561  
H89      H      0.072240000000     0.516170000000     0.233980000000     0.0377633  
H90      H      0.072890000000     0.514310000000     0.296650000000     0.0362462  
H91      H      0.961790000000     0.520640000000     0.297480000000     0.0361814  
H92      H      0.961570000000     0.520040000000     0.234790000000     0.0377249  
H93      H      0.065370000000     0.545240000000     0.346480000000     0.0471684  
H94      H      0.066040000000     0.543400000000     0.409000000000     0.0265038  
H95      H      0.969710000000     0.488480000000     0.408700000000     0.0262813  
H96      H      0.969930000000     0.488110000000     0.346150000000     0.0469849  
H97      H      0.409410000000     0.969350000000     0.545810000000     0.0267349  
H98      H      0.346910000000     0.969910000000     0.546750000000     0.0470901  
H99      H      0.347160000000     0.063470000000     0.486590000000     0.0470775  
H100     H      0.409670000000     0.063870000000     0.487830000000     0.0267596  
H101     H      0.297720000000     0.961120000000     0.515250000000     0.0362287  
H102     H      0.235070000000     0.961410000000     0.516380000000     0.0377411  
H103     H      0.235130000000     0.072120000000     0.516500000000     0.0376945  
H104     H      0.297780000000     0.072340000000     0.517800000000     0.036215   
H105     H      0.188060000000     0.988640000000     0.564250000000     0.0485814  
H106     H      0.125070000000     0.988980000000     0.564640000000     0.0265726  
H107     H      0.124930000000     0.044450000000     0.468420000000     0.0265745  
H108     H      0.187940000000     0.044910000000     0.468710000000     0.0485803  
H109     H      0.909410000000     0.043820000000     0.468810000000     0.026456   
H110     H      0.846400000000     0.044220000000     0.469270000000     0.0484536  
H111     H      0.846580000000     0.987410000000     0.564480000000     0.0485672  
H112     H      0.909600000000     0.987830000000     0.564730000000     0.0267254  
H113     H      0.799530000000     0.071200000000     0.518670000000     0.0378284  
H114     H      0.736890000000     0.071530000000     0.519970000000     0.0362521  
H115     H      0.736690000000     0.960430000000     0.514130000000     0.0362368  
H116     H      0.799350000000     0.960550000000     0.515300000000     0.0378041  
H117     H      0.687580000000     0.063780000000     0.488440000000     0.0469565  
H118     H      0.625080000000     0.064350000000     0.489540000000     0.0259503  
H119     H      0.624880000000     0.968050000000     0.544500000000     0.0259783  
H120     H      0.687390000000     0.968370000000     0.545640000000     0.0469565  
H121     H      0.074180000000     0.623900000000     0.517840000000     0.0284336  
H122     H      0.074670000000     0.686470000000     0.516240000000     0.0475181  
H123     H      0.963790000000     0.687310000000     0.511070000000     0.0475301  
H124     H      0.963210000000     0.624740000000     0.512100000000     0.0284793  
H125     H      0.058370000000     0.735080000000     0.552730000000     0.0366918  
H126     H      0.058720000000     0.797720000000     0.552150000000     0.0366098  
H127     H      0.980360000000     0.797480000000     0.473460000000     0.036763   
H128     H      0.980820000000     0.734780000000     0.473240000000     0.0367899  
H129     H      0.020610000000     0.844850000000     0.568840000000     0.0474093  
H130     H      0.020110000000     0.907350000000     0.569820000000     0.0282885  
H131     H      0.016090000000     0.909070000000     0.458730000000     0.0286175  
H132     H      0.017140000000     0.846410000000     0.457840000000     0.0476512  
H133     H      0.961200000000     0.408700000000     0.516610000000     0.0283908  
H134     H      0.960640000000     0.346130000000     0.518190000000     0.047541   
H135     H      0.071610000000     0.345090000000     0.520810000000     0.047538   
H136     H      0.072280000000     0.407680000000     0.519750000000     0.0283701  
H137     H      0.976130000000     0.297550000000     0.481170000000     0.0365954  
H138     H      0.975600000000     0.234910000000     0.481780000000     0.036588   
H139     H      0.055410000000     0.234930000000     0.558990000000     0.0367265  
H140     H      0.055200000000     0.297650000000     0.559150000000     0.0366829  
H141     H      0.013420000000     0.187660000000     0.464420000000     0.0474079  
H142     H      0.013700000000     0.125150000000     0.463470000000     0.0282726  
H143     H      0.019320000000     0.123490000000     0.574500000000     0.0285616  
H144     H      0.018520000000     0.186160000000     0.575350000000     0.047702   
O1       O      0.016900000000     0.065690000000     0.489080000000    -0.548538   
O2       O      0.017500000000     0.968230000000     0.486720000000    -0.546042   
O3       O      0.968410000000     0.016910000000     0.487940000000    -0.545944   
O4       O      0.066010000000     0.017480000000     0.487830000000    -0.545847   
O5       O      0.066080000000     0.015610000000     0.545330000000    -0.546279   
O6       O      0.968490000000     0.015060000000     0.545450000000    -0.545553   
O7       O      0.017590000000     0.966840000000     0.544190000000    -0.548432   
O8       O      0.017020000000     0.064310000000     0.546550000000    -0.546043   
O9       O      0.988580000000     0.467780000000     0.517620000000    -0.54747    
O10      O      0.989450000000     0.565240000000     0.515390000000    -0.547268   
O11      O      0.989080000000     0.515300000000     0.467730000000    -0.546698   
O12      O      0.988920000000     0.517720000000     0.565320000000    -0.54628    
O13      O      0.046380000000     0.515630000000     0.565440000000    -0.546532   
O14      O      0.046570000000     0.516350000000     0.467820000000    -0.546303   
O15      O      0.046890000000     0.564750000000     0.516780000000    -0.547229   
O16      O      0.046020000000     0.467240000000     0.516520000000    -0.547059   
O17      O      0.517990000000     0.988870000000     0.566450000000    -0.547347   
O18      O      0.516450000000     0.986500000000     0.468860000000    -0.544748   
O19      O      0.566010000000     0.987570000000     0.517300000000    -0.545832   
O20      O      0.468420000000     0.987810000000     0.518480000000    -0.545788   
O21      O      0.468530000000     0.045210000000     0.515340000000    -0.545761   
O22      O      0.566120000000     0.045060000000     0.516690000000    -0.545789   
O23      O      0.518170000000     0.043950000000     0.467460000000    -0.547261   
O24      O      0.516500000000     0.046320000000     0.565050000000    -0.544878   
O25      O      0.485890000000     0.065170000000     0.016950000000    -0.545296   
O26      O      0.485890000000     0.967570000000     0.016980000000    -0.545221   
O27      O      0.485900000000     0.016000000000     0.065780000000    -0.545713   
O28      O      0.485880000000     0.016740000000     0.968140000000    -0.545834   
O29      O      0.543390000000     0.016420000000     0.968140000000    -0.546095   
O30      O      0.543410000000     0.016320000000     0.065750000000    -0.546383   
O31      O      0.543400000000     0.967580000000     0.016620000000    -0.545416   
O32      O      0.543400000000     0.065160000000     0.017270000000    -0.545474   
O33      O      0.017250000000     0.486830000000     0.968220000000    -0.545646   
O34      O      0.015240000000     0.488260000000     0.065810000000    -0.547013   
O35      O      0.967480000000     0.487570000000     0.016220000000    -0.546659   
O36      O      0.065010000000     0.487540000000     0.018060000000    -0.546826   
O37      O      0.065040000000     0.544940000000     0.014990000000    -0.546788   
O38      O      0.967520000000     0.545010000000     0.017080000000    -0.546831   
O39      O      0.017410000000     0.545700000000     0.064950000000    -0.5458     
O40      O      0.015130000000     0.544270000000     0.967370000000    -0.546986   
O41      O      0.514860000000     0.468050000000     0.987300000000    -0.544543   
O42      O      0.517000000000     0.565610000000     0.988850000000    -0.546072   
O43      O      0.564680000000     0.515980000000     0.988100000000    -0.546762   
O44      O      0.467160000000     0.517930000000     0.988070000000    -0.546468   
O45      O      0.467130000000     0.514780000000     0.045520000000    -0.54634    
O46      O      0.564660000000     0.516780000000     0.045580000000    -0.546659   
O47      O      0.514810000000     0.564690000000     0.046330000000    -0.544691   
O48      O      0.517000000000     0.467130000000     0.044790000000    -0.545998   
V1       V      0.017200000000     0.017090000000     0.485590000000     1.38757    
V2       V      0.017300000000     0.015440000000     0.547690000000     1.38744    
V3       V      0.986700000000     0.516530000000     0.516510000000     1.38876    
V4       V      0.048780000000     0.515980000000     0.516640000000     1.38746    
V5       V      0.517210000000     0.985370000000     0.517790000000     1.38674    
V6       V      0.517330000000     0.047450000000     0.516120000000     1.38637    
V7       V      0.483580000000     0.016370000000     0.016960000000     1.38504    
V8       V      0.545700000000     0.016370000000     0.016950000000     1.38695    
V9       V      0.016250000000     0.485230000000     0.017090000000     1.38752    
V10      V      0.016280000000     0.547300000000     0.016090000000     1.38783    
V11      V      0.515920000000     0.516910000000     0.985760000000     1.38659    
V12      V      0.515900000000     0.515830000000     0.047870000000     1.38603    


