data_structure

_audit_creation_method RASPA-1.0
_audit_creation_date 2023-5-19
_audit_author_name 'Poobodin Mano'

_cell_length_a    20.5074
_cell_length_b    21.078
_cell_length_c    21.0407
_cell_angle_alpha 90
_cell_angle_beta  90
_cell_angle_gamma 90
_cell_volume      9094.95

_symmetry_cell_setting          triclinic
_symmetry_space_group_name_Hall 'P 1'
_symmetry_space_group_name_H-M  'P 1'
_symmetry_Int_Tables_number     1

_symmetry_equiv_pos_as_xyz 'x,y,z'

loop_
_atom_site_label
_atom_site_type_symbol
_atom_site_fract_x
_atom_site_fract_y
_atom_site_fract_z
_atom_site_charge
C1       C      0.012380000000     0.129320000000     0.518500000000     0.473253   
C2       C      0.013440000000     0.889660000000     0.520240000000     0.473949   
C3       C      0.890980000000     0.007380000000     0.504880000000     0.47293    
C4       C      0.135410000000     0.008490000000     0.534420000000     0.47464    
C5       C      0.023800000000     0.389970000000     0.528140000000     0.473232   
C6       C      0.026320000000     0.629600000000     0.529390000000     0.474214   
C7       C      0.017890000000     0.510140000000     0.408060000000     0.472855   
C8       C      0.031820000000     0.509020000000     0.647760000000     0.472992   
C9       C      0.515140000000     0.010130000000     0.608580000000     0.470673   
C10      C      0.500160000000     0.010710000000     0.368420000000     0.470931   
C11      C      0.628900000000     0.992380000000     0.479080000000     0.474813   
C12      C      0.386030000000     0.028770000000     0.494860000000     0.473421   
C13      C      0.504260000000     0.122020000000     0.986230000000     0.473064   
C14      C      0.521710000000     0.882440000000     0.991120000000     0.471137   
C15      C      0.499080000000     0.007280000000     0.107220000000     0.472299   
C16      C      0.526630000000     0.998230000000     0.868340000000     0.473367   
C17      C      0.036980000000     0.495350000000     0.908710000000     0.47213    
C18      C      0.008580000000     0.496280000000     0.147010000000     0.471433   
C19      C      0.900210000000     0.501200000000     0.013340000000     0.470432   
C20      C      0.144980000000     0.491180000000     0.040230000000     0.470958   
C21      C      0.518730000000     0.382170000000     0.980710000000     0.470553   
C22      C      0.538340000000     0.621610000000     0.976640000000     0.470172   
C23      C      0.649530000000     0.490460000000     0.959560000000     0.473363   
C24      C      0.407240000000     0.509980000000     0.998670000000     0.47107    
C25      C      0.746460000000     0.427080000000     0.983470000000    -0.00414366 
C26      C      0.755460000000     0.526290000000     0.918540000000    -0.00856192 
C27      C      0.791770000000     0.454760000000     0.033560000000    -0.00696569 
C28      C      0.802470000000     0.554540000000     0.968310000000    -0.00943961 
C29      C      0.249670000000     0.529340000000     0.085040000000    -0.00793183 
C30      C      0.246570000000     0.439720000000     0.006290000000    -0.00656204 
C31      C      0.311500000000     0.555370000000     0.052650000000    -0.00869407 
C32      C      0.299360000000     0.472000000000     0.967030000000    -0.0066753  
C33      C      0.593110000000     0.720190000000     0.010930000000    -0.00773776 
C34      C      0.505410000000     0.722370000000     0.927540000000    -0.0073947  
C35      C      0.569770000000     0.785140000000     0.035620000000    -0.0088492  
C36      C      0.475130000000     0.780360000000     0.959040000000    -0.0063743  
C37      C      0.482160000000     0.283230000000     0.929900000000    -0.00687079 
C38      C      0.560900000000     0.282250000000     0.022380000000    -0.0072225  
C39      C      0.450760000000     0.222190000000     0.955160000000    -0.00690301 
C40      C      0.532380000000     0.218920000000     0.043900000000    -0.0067656  
C41      C      0.585050000000     0.025890000000     0.769120000000    -0.00828959 
C42      C      0.495160000000     0.945120000000     0.769260000000    -0.00655943 
C43      C      0.555980000000     0.056380000000     0.708990000000    -0.00760958 
C44      C      0.467130000000     0.973450000000     0.708520000000    -0.00721349 
C45      C      0.547940000000     0.048600000000     0.269540000000    -0.00841973 
C46      C      0.466370000000     0.958590000000     0.269380000000    -0.00642585 
C47      C      0.524760000000     0.067640000000     0.203210000000    -0.00703788 
C48      C      0.439480000000     0.982380000000     0.205780000000    -0.00579483 
C49      C      0.095410000000     0.531710000000     0.813080000000    -0.00838396 
C50      C      0.011870000000     0.444580000000     0.807020000000    -0.00730565 
C51      C      0.075270000000     0.554130000000     0.746270000000    -0.00881627 
C52      C      0.983270000000     0.474300000000     0.747530000000    -0.00518899 
C53      C      0.976520000000     0.557650000000     0.309840000000    -0.0084542  
C54      C      0.063760000000     0.473070000000     0.307770000000    -0.00558974 
C55      C      0.954090000000     0.536130000000     0.243420000000    -0.00833724 
C56      C      0.032790000000     0.444700000000     0.248610000000    -0.00721197 
C57      C      0.287370000000     0.082830000000     0.536440000000    -0.00914683 
C58      C      0.278900000000     0.995140000000     0.455930000000    -0.00341019 
C59      C      0.239530000000     0.046360000000     0.580200000000    -0.00918922 
C60      C      0.236660000000     0.957160000000     0.501070000000    -0.00323263 
C61      C      0.728700000000     0.935520000000     0.510070000000    -0.00757909 
C62      C      0.731450000000     0.017120000000     0.423360000000    -0.00669016 
C63      C      0.785310000000     0.968850000000     0.543600000000    -0.00524814 
C64      C      0.792600000000     0.047000000000     0.452250000000    -0.00822867 
C65      C      0.991500000000     0.727080000000     0.582670000000    -0.00756023 
C66      C      0.076400000000     0.729990000000     0.496210000000    -0.00675395 
C67      C      0.965410000000     0.791360000000     0.560430000000    -0.00754202 
C68      C      0.045060000000     0.789810000000     0.469070000000    -0.00599499 
C69      C      0.051000000000     0.228930000000     0.471420000000    -0.0067231  
C70      C      0.957700000000     0.227850000000     0.549350000000    -0.00826237 
C71      C      0.077400000000     0.289180000000     0.502380000000    -0.00619787 
C72      C      0.979360000000     0.292720000000     0.574470000000    -0.00723227 
H1       H      0.784220000000     0.503220000000     0.880150000000     0.0351912  
H2       H      0.775630000000     0.398610000000     0.949240000000     0.0339222  
H3       H      0.819690000000     0.415440000000     0.055910000000     0.0378516  
H4       H      0.726080000000     0.564950000000     0.896650000000     0.0315411  
H5       H      0.838730000000     0.584630000000     0.943080000000     0.0372342  
H6       H      0.774750000000     0.585330000000     0.001640000000     0.036249   
H7       H      0.710800000000     0.394320000000     0.006180000000     0.0311458  
H8       H      0.762210000000     0.477350000000     0.071640000000     0.0386597  
H9       H      0.268820000000     0.405030000000     0.039700000000     0.0369547  
H10      H      0.264390000000     0.500770000000     0.127070000000     0.0329178  
H11      H      0.346280000000     0.570690000000     0.090220000000     0.0366083  
H12      H      0.214040000000     0.413380000000     0.973190000000     0.0361388  
H13      H      0.327150000000     0.434360000000     0.941600000000     0.0345091  
H14      H      0.276920000000     0.503990000000     0.931120000000     0.0373279  
H15      H      0.220340000000     0.569970000000     0.102920000000     0.0371519  
H16      H      0.298150000000     0.598140000000     0.024590000000     0.0332148  
H17      H      0.538720000000     0.737270000000     0.888580000000     0.0363567  
H18      H      0.635530000000     0.727630000000     0.978870000000     0.0318822  
H19      H      0.613480000000     0.814440000000     0.046510000000     0.0374194  
H20      H      0.465180000000     0.693770000000     0.906550000000     0.0359814  
H21      H      0.450160000000     0.808350000000     0.921340000000     0.0345553  
H22      H      0.438120000000     0.765370000000     0.994650000000     0.0371161  
H23      H      0.610610000000     0.691880000000     0.052150000000     0.0372458  
H24      H      0.542870000000     0.777870000000     0.080920000000     0.0332394  
H25      H      0.606400000000     0.273230000000     0.995060000000     0.0331361  
H26      H      0.518250000000     0.271390000000     0.892270000000     0.037861   
H27      H      0.432250000000     0.194250000000     0.914050000000     0.03339    
H28      H      0.574440000000     0.309740000000     0.065550000000     0.0361709  
H29      H      0.572370000000     0.189760000000     0.064530000000     0.0347467  
H30      H      0.496330000000     0.227590000000     0.082420000000     0.0328348  
H31      H      0.443030000000     0.312830000000     0.908340000000     0.0337626  
H32      H      0.408860000000     0.234020000000     0.986550000000     0.0361906  
H33      H      0.527460000000     0.904610000000     0.756770000000     0.033425   
H34      H      0.623830000000     0.991560000000     0.755630000000     0.0362719  
H35      H      0.596920000000     0.074650000000     0.679500000000     0.035137   
H36      H      0.454370000000     0.925760000000     0.798240000000     0.0357588  
H37      H      0.446500000000     0.934080000000     0.679630000000     0.0375722  
H38      H      0.426260000000     0.005830000000     0.720970000000     0.0342636  
H39      H      0.607540000000     0.063880000000     0.798590000000     0.0343559  
H40      H      0.524460000000     0.097120000000     0.722550000000     0.0367454  
H41      H      0.501860000000     0.919580000000     0.260950000000     0.0382292  
H42      H      0.593330000000     0.020070000000     0.264990000000     0.0335672  
H43      H      0.567580000000     0.084860000000     0.175660000000     0.0346005  
H44      H      0.424900000000     0.939380000000     0.297590000000     0.0330049  
H45      H      0.420770000000     0.940910000000     0.178570000000     0.0329618  
H46      H      0.398390000000     0.015800000000     0.214080000000     0.0358954  
H47      H      0.560410000000     0.092670000000     0.295990000000     0.0361956  
H48      H      0.490080000000     0.107990000000     0.207440000000     0.0325616  
H49      H      0.047840000000     0.407240000000     0.794120000000     0.0367353  
H50      H      0.139780000000     0.501660000000     0.808930000000     0.0322701  
H51      H      0.120280000000     0.565440000000     0.719000000000     0.0365493  
H52      H      0.971200000000     0.421950000000     0.833750000000     0.0366537  
H53      H      0.961340000000     0.435540000000     0.718590000000     0.0339714  
H54      H      0.944180000000     0.508550000000     0.760440000000     0.0380349  
H55      H      0.108850000000     0.574080000000     0.841740000000     0.0374328  
H56      H      0.046750000000     0.598770000000     0.750930000000     0.0323993  
H57      H      0.104470000000     0.505260000000     0.294300000000     0.0379642  
H58      H      0.007640000000     0.600540000000     0.304560000000     0.0325952  
H59      H      0.942690000000     0.579060000000     0.214750000000     0.0373172  
H60      H      0.083960000000     0.433360000000     0.336630000000     0.0338549  
H61      H      0.071800000000     0.420080000000     0.221310000000     0.0360843  
H62      H      0.995110000000     0.409200000000     0.262070000000     0.0373519  
H63      H      0.932690000000     0.571680000000     0.337670000000     0.0366622  
H64      H      0.908130000000     0.508580000000     0.248370000000     0.0325631  
H65      H      0.247270000000     0.023720000000     0.423930000000     0.0375327  
H66      H      0.259660000000     0.117920000000     0.507690000000     0.0351472  
H67      H      0.207780000000     0.080810000000     0.605660000000     0.0335944  
H68      H      0.307680000000     0.962530000000     0.425210000000     0.0348932  
H69      H      0.203520000000     0.925410000000     0.473770000000     0.0335017  
H70      H      0.268160000000     0.926250000000     0.530960000000     0.0368058  
H71      H      0.322960000000     0.109320000000     0.566240000000     0.0345733  
H72      H      0.267820000000     0.019530000000     0.616390000000     0.0347281  
H73      H      0.746310000000     0.983210000000     0.385550000000     0.0332861  
H74      H      0.747620000000     0.897150000000     0.478820000000     0.0361141  
H75      H      0.814570000000     0.932020000000     0.568610000000     0.0340466  
H76      H      0.701870000000     0.054820000000     0.400120000000     0.034282   
H77      H      0.825590000000     0.061310000000     0.412790000000     0.0366032  
H78      H      0.778460000000     0.090740000000     0.478390000000     0.0345756  
H79      H      0.696450000000     0.913690000000     0.546570000000     0.0346228  
H80      H      0.766140000000     0.002710000000     0.579580000000     0.0371756  
H81      H      0.117420000000     0.742890000000     0.528280000000     0.0366325  
H82      H      0.025170000000     0.734690000000     0.623400000000     0.0328496  
H83      H      0.951900000000     0.819580000000     0.603140000000     0.0361616  
H84      H      0.096180000000     0.701720000000     0.455890000000     0.0340944  
H85      H      0.084110000000     0.818640000000     0.446310000000     0.0331655  
H86      H      0.008540000000     0.776930000000     0.432180000000     0.0372064  
H87      H      0.949710000000     0.698400000000     0.600330000000     0.0367235  
H88      H      0.920180000000     0.783640000000     0.532310000000     0.0332843  
H89      H      0.917550000000     0.234830000000     0.514510000000     0.0331963  
H90      H      0.020720000000     0.241280000000     0.429350000000     0.0371079  
H91      H      0.103300000000     0.317130000000     0.465250000000     0.0336233  
H92      H      0.937600000000     0.200070000000     0.589820000000     0.036851   
H93      H      0.934970000000     0.321350000000     0.584590000000     0.0359224  
H94      H      0.005580000000     0.285930000000     0.620240000000     0.0327241  
H95      H      0.093320000000     0.200130000000     0.455080000000     0.0344801  
H96      H      0.112860000000     0.276760000000     0.540400000000     0.0372864  
N1       N      0.834260000000     0.503080000000     0.004500000000    -0.179063   
N2       N      0.713730000000     0.478660000000     0.949130000000    -0.180758   
N3       N      0.341780000000     0.508860000000     0.009470000000    -0.179182   
N4       N      0.211370000000     0.488520000000     0.042210000000    -0.179556   
N5       N      0.526220000000     0.817830000000     0.990500000000    -0.179602   
N6       N      0.542020000000     0.686270000000     0.975280000000    -0.179626   
N7       N      0.499430000000     0.186200000000     0.991180000000    -0.180329   
N8       N      0.515120000000     0.317600000000     0.981720000000    -0.179466   
N9       N      0.516930000000     0.009650000000     0.673420000000    -0.179619   
N10      N      0.533490000000     0.992630000000     0.804190000000    -0.179715   
N11      N      0.491630000000     0.014780000000     0.171010000000    -0.180381   
N12      N      0.498840000000     0.010630000000     0.303670000000    -0.17942    
N13      N      0.035000000000     0.507180000000     0.712320000000    -0.180363   
N14      N      0.043980000000     0.494270000000     0.844370000000    -0.179949   
N15      N      0.002750000000     0.495820000000     0.211500000000    -0.179723   
N16      N      0.014340000000     0.508620000000     0.343490000000    -0.180086   
N17      N      0.200820000000     0.001420000000     0.542110000000    -0.181163   
N18      N      0.320360000000     0.037960000000     0.493390000000    -0.180878   
N19      N      0.825250000000     0.003460000000     0.496820000000    -0.180354   
N20      N      0.693920000000     0.982490000000     0.471710000000    -0.180384   
N21      N      0.012960000000     0.825150000000     0.520430000000    -0.180341   
N22      N      0.027240000000     0.694050000000     0.531830000000    -0.180621   
N23      N      0.023150000000     0.325430000000     0.529750000000    -0.180091   
N24      N      0.011320000000     0.193870000000     0.517660000000    -0.180239   
O1       O      0.025580000000     0.098900000000     0.467260000000    -0.5609     
O2       O      0.017430000000     0.919340000000     0.467120000000    -0.560648   
O3       O      0.928330000000     0.013670000000     0.456190000000    -0.557196   
O4       O      0.111410000000     0.003630000000     0.478400000000    -0.56398    
O5       O      0.098350000000     0.015410000000     0.583210000000    -0.551464   
O6       O      0.914790000000     0.003430000000     0.561070000000    -0.558681   
O7       O      0.009660000000     0.919860000000     0.573150000000    -0.555102   
O8       O      0.999930000000     0.099730000000     0.570460000000    -0.555334   
O9       O      0.969560000000     0.420430000000     0.528060000000    -0.557243   
O10      O      0.972250000000     0.600110000000     0.537690000000    -0.558582   
O11      O      0.965590000000     0.516270000000     0.441200000000    -0.554572   
O12      O      0.976010000000     0.504400000000     0.620750000000    -0.562521   
O13      O      0.084350000000     0.514320000000     0.614780000000    -0.554391   
O14      O      0.073670000000     0.504220000000     0.434940000000    -0.560419   
O15      O      0.079600000000     0.599200000000     0.519510000000    -0.559097   
O16      O      0.078610000000     0.419450000000     0.527410000000    -0.558084   
O17      O      0.499340000000     0.959220000000     0.578830000000    -0.559363   
O18      O      0.496380000000     0.957900000000     0.398620000000    -0.55837    
O19      O      0.590680000000     0.944890000000     0.488130000000    -0.557993   
O20      O      0.408130000000     0.972240000000     0.488680000000    -0.563852   
O21      O      0.424890000000     0.076460000000     0.499180000000    -0.550424   
O22      O      0.606690000000     0.049120000000     0.476240000000    -0.55704    
O23      O      0.507110000000     0.063460000000     0.398310000000    -0.552981   
O24      O      0.527770000000     0.061480000000     0.578030000000    -0.551606   
O25      O      0.452720000000     0.088220000000     0.977900000000    -0.55441    
O26      O      0.465710000000     0.908480000000     0.983550000000    -0.5597     
O27      O      0.448710000000     0.999680000000     0.071630000000    -0.554762   
O28      O      0.469410000000     0.994090000000     0.892470000000    -0.559873   
O29      O      0.577120000000     0.005630000000     0.903900000000    -0.552872   
O30      O      0.556510000000     0.010520000000     0.083380000000    -0.557646   
O31      O      0.573360000000     0.916450000000     0.997830000000    -0.552384   
O32      O      0.560310000000     0.096110000000     0.993180000000    -0.559359   
O33      O      0.022180000000     0.443910000000     0.937910000000    -0.563385   
O34      O      0.018460000000     0.443840000000     0.117570000000    -0.562406   
O35      O      0.927920000000     0.447920000000     0.025460000000    -0.559807   
O36      O      0.112500000000     0.440300000000     0.029130000000    -0.560382   
O37      O      0.115760000000     0.544760000000     0.046340000000    -0.548297   
O38      O      0.934090000000     0.552340000000     0.009090000000    -0.548664   
O39      O      0.005620000000     0.549020000000     0.116500000000    -0.548876   
O40      O      0.044200000000     0.547640000000     0.939350000000    -0.549098   
O41      O      0.515110000000     0.411630000000     0.927410000000    -0.556472   
O42      O      0.521160000000     0.591510000000     0.926260000000    -0.558251   
O43      O      0.611080000000     0.499250000000     0.912110000000    -0.552778   
O44      O      0.428340000000     0.502920000000     0.941720000000    -0.558983   
O45      O      0.446990000000     0.514590000000     0.045690000000    -0.55167    
O46      O      0.627780000000     0.488730000000     0.016600000000    -0.558862   
O47      O      0.550820000000     0.591590000000     0.028370000000    -0.552484   
O48      O      0.527070000000     0.412640000000     0.033020000000    -0.55356    
V1       V      0.020990000000     0.009070000000     0.462890000000     1.40161    
V2       V      0.005430000000     0.009850000000     0.576410000000     1.38131    
V3       V      0.966340000000     0.510400000000     0.531800000000     1.39511    
V4       V      0.083570000000     0.509310000000     0.524110000000     1.39077    
V5       V      0.498220000000     0.954250000000     0.488760000000     1.40268    
V6       V      0.517050000000     0.067050000000     0.488120000000     1.37374    
V7       V      0.454780000000     0.997560000000     0.981100000000     1.39155    
V8       V      0.571240000000     0.007130000000     0.994680000000     1.38444    
V9       V      0.020030000000     0.439500000000     0.027660000000     1.40849    
V10      V      0.025080000000     0.553130000000     0.027920000000     1.35853    
V11      V      0.518460000000     0.501530000000     0.922520000000     1.38978    
V12      V      0.538670000000     0.502150000000     0.035290000000     1.38228    


