data_structure

_audit_creation_method RASPA-1.0
_audit_creation_date 2023-5-25
_audit_author_name 'Poobodin Mano'

_cell_length_a    28.9451
_cell_length_b    28.9679
_cell_length_c    28.6821
_cell_angle_alpha 90
_cell_angle_beta  89.9998
_cell_angle_gamma 90
_cell_volume      24049.3

_symmetry_cell_setting          triclinic
_symmetry_space_group_name_Hall 'P 1'
_symmetry_space_group_name_H-M  'P 1'
_symmetry_Int_Tables_number     1

_symmetry_equiv_pos_as_xyz 'x,y,z'

loop_
_atom_site_label
_atom_site_type_symbol
_atom_site_fract_x
_atom_site_fract_y
_atom_site_fract_z
_atom_site_charge
C1       C      0.014020000000     0.096770000000     0.513460000000     0.476082   
C2       C      0.031340000000     0.923160000000     0.521210000000     0.4761     
C3       C      0.936130000000     0.001840000000     0.513790000000     0.478467   
C4       C      0.109930000000     0.017290000000     0.520550000000     0.477102   
C5       C      0.049540000000     0.425840000000     0.549530000000     0.474765   
C6       C      0.066860000000     0.597850000000     0.523250000000     0.478558   
C7       C      0.055660000000     0.499660000000     0.449770000000     0.47736    
C8       C      0.059860000000     0.525650000000     0.624350000000     0.477266   
C9       C      0.508350000000     0.057760000000     0.602080000000     0.476077   
C10      C      0.541450000000     0.052330000000     0.428950000000     0.476129   
C11      C      0.610140000000     0.053890000000     0.532660000000     0.477279   
C12      C      0.438740000000     0.056840000000     0.499020000000     0.474988   
C13      C      0.499320000000     0.107420000000     0.042760000000     0.47504    
C14      C      0.478370000000     0.940530000000     0.994200000000     0.474869   
C15      C      0.497140000000     0.000010000000     0.103350000000     0.475082   
C16      C      0.479630000000     0.049340000000     0.934810000000     0.475036   
C17      C      0.996540000000     0.485730000000     0.949520000000     0.475068   
C18      C      0.006720000000     0.466080000000     0.124760000000     0.476111   
C19      C      0.914330000000     0.467270000000     0.043260000000     0.476126   
C20      C      0.088280000000     0.485260000000     0.032300000000     0.473912   
C21      C      0.490790000000     0.436870000000     0.010770000000     0.476424   
C22      C      0.510380000000     0.610630000000     0.004360000000     0.476638   
C23      C      0.587660000000     0.512900000000     0.016690000000     0.473437   
C24      C      0.414630000000     0.533500000000     0.997780000000     0.47629    
C25      C      0.659210000000     0.520390000000     0.063720000000     0.0159364  
C26      C      0.842980000000     0.422050000000     0.030620000000     0.0197867  
C27      C      0.842210000000     0.494790000000     0.079760000000     0.0610906  
C28      C      0.797920000000     0.436810000000     0.006620000000    -0.106778   
C29      C      0.693770000000     0.483490000000     0.079350000000    -0.102047   
C30      C      0.795750000000     0.508900000000     0.058410000000    -0.11651    
C31      C      0.722580000000     0.466770000000     0.038550000000     0.0156134  
C32      C      0.769720000000     0.468140000000     0.038040000000     0.0239267  
C33      C      0.661720000000     0.488110000000     0.981730000000     0.0164757  
C34      C      0.694510000000     0.449520000000     0.997610000000    -0.102451   
C35      C      0.164300000000     0.453750000000     0.008940000000     0.0161453  
C36      C      0.340130000000     0.562580000000     0.028210000000     0.0198374  
C37      C      0.344380000000     0.521840000000     0.950140000000     0.0618013  
C38      C      0.298110000000     0.533860000000     0.042030000000    -0.105614   
C39      C      0.199640000000     0.474610000000     0.974950000000    -0.102575   
C40      C      0.301910000000     0.492370000000     0.963110000000    -0.117318   
C41      C      0.225300000000     0.513570000000     0.998860000000     0.0162555  
C42      C      0.272330000000     0.516340000000     0.999470000000     0.0234989  
C43      C      0.158690000000     0.529640000000     0.052040000000     0.0169134  
C44      C      0.194530000000     0.550760000000     0.019300000000    -0.102664   
C45      C      0.505850000000     0.872940000000     0.948900000000     0.0177229  
C46      C      0.498580000000     0.685580000000     0.043610000000     0.0197844  
C47      C      0.532490000000     0.682310000000     0.962180000000     0.060745   
C48      C      0.464490000000     0.723080000000     0.028590000000    -0.106822   
C49      C      0.522630000000     0.827280000000     0.969700000000    -0.1018     
C50      C      0.502000000000     0.723470000000     0.947920000000    -0.11665    
C51      C      0.482970000000     0.798440000000     0.988890000000     0.0154801  
C52      C      0.485580000000     0.751380000000     0.989660000000     0.0237483  
C53      C      0.432150000000     0.868640000000     0.994410000000     0.0178704  
C54      C      0.447980000000     0.824230000000     0.018660000000    -0.102394   
C55      C      0.549050000000     0.176790000000     0.045080000000     0.0176059  
C56      C      0.459000000000     0.368040000000     0.050520000000     0.0196758  
C57      C      0.503800000000     0.360610000000     0.974770000000     0.0624835  
C58      C      0.485050000000     0.326850000000     0.070850000000    -0.105823   
C59      C      0.539230000000     0.218810000000     0.014320000000    -0.102257   
C60      C      0.531150000000     0.319730000000     0.995040000000    -0.117355   
C61      C      0.502250000000     0.248730000000     0.036530000000     0.0152132  
C62      C      0.503380000000     0.295600000000     0.032670000000     0.0235085  
C63      C      0.469320000000     0.179420000000     0.078910000000     0.0175215  
C64      C      0.458530000000     0.223780000000     0.051960000000    -0.101638   
C65      C      0.511240000000     0.090370000000     0.866240000000     0.0177643  
C66      C      0.477700000000     0.020010000000     0.672520000000     0.019336   
C67      C      0.524920000000     0.094320000000     0.677730000000     0.060222   
C68      C      0.446510000000     0.036890000000     0.712230000000    -0.107263   
C69      C      0.520870000000     0.070830000000     0.817740000000    -0.102251   
C70      C      0.495750000000     0.109150000000     0.719730000000    -0.116806   
C71      C      0.476460000000     0.061760000000     0.790950000000     0.0159833  
C72      C      0.474130000000     0.068100000000     0.743940000000     0.0242296  
C73      C      0.430640000000     0.058040000000     0.864790000000     0.0176647  
C74      C      0.439390000000     0.035480000000     0.817250000000    -0.102794   
C75      C      0.543990000000     0.970810000000     0.170220000000     0.0165798  
C76      C      0.533340000000     0.087500000000     0.351090000000     0.0196954  
C77      C      0.577740000000     0.013120000000     0.361330000000     0.0607952  
C78      C      0.503970000000     0.066020000000     0.312470000000    -0.10533    
C79      C      0.561580000000     0.002160000000     0.209700000000    -0.101841   
C80      C      0.553150000000     0.992190000000     0.318730000000    -0.115479   
C81      C      0.522830000000     0.018910000000     0.241600000000     0.0150667  
C82      C      0.530650000000     0.028250000000     0.287530000000     0.0224205  
C83      C      0.463320000000     0.998980000000     0.182470000000     0.0181912  
C84      C      0.479180000000     0.035370000000     0.217480000000    -0.102083   
C85      C      0.980900000000     0.533390000000     0.879010000000     0.0164872  
C86      C      0.098190000000     0.514820000000     0.700500000000     0.0195019  
C87      C      0.025730000000     0.563140000000     0.693920000000     0.0613114  
C88      C      0.077560000000     0.487770000000     0.741370000000    -0.105576   
C89      C      0.017770000000     0.550750000000     0.844870000000    -0.101954   
C90      C      0.005510000000     0.539580000000     0.737290000000    -0.116018   
C91      C      0.035860000000     0.511870000000     0.814240000000     0.0155888  
C92      C      0.042230000000     0.516710000000     0.767370000000     0.0229143  
C93      C      0.011450000000     0.452510000000     0.871530000000     0.0172419  
C94      C      0.051060000000     0.468930000000     0.840250000000    -0.102534   
C95      C      0.030820000000     0.419930000000     0.193260000000     0.0166024  
C96      C      0.014380000000     0.512830000000     0.375810000000     0.0203732  
C97      C      0.093250000000     0.473670000000     0.376730000000     0.0610332  
C98      C      0.997010000000     0.477140000000     0.341160000000    -0.106492   
C99      C      0.064050000000     0.434760000000     0.232430000000    -0.103134   
C100     C      0.076200000000     0.439160000000     0.339280000000    -0.117689   
C101     C      0.039440000000     0.467720000000     0.265050000000     0.0171536  
C102     C      0.036810000000     0.460200000000     0.311780000000     0.0242458  
C103     C      0.984940000000     0.493480000000     0.203200000000     0.0179037  
C104     C      0.017510000000     0.509200000000     0.241730000000    -0.102479   
C105     C      0.367870000000     0.018760000000     0.469310000000     0.0175433  
C106     C      0.180780000000     0.040800000000     0.562210000000     0.0194802  
C107     C      0.184860000000     0.993170000000     0.487800000000     0.061717   
C108     C      0.221550000000     0.070430000000     0.545630000000    -0.106791   
C109     C      0.328340000000     0.002770000000     0.500610000000    -0.102474   
C110     C      0.226830000000     0.021150000000     0.471970000000    -0.117101   
C111     C      0.298790000000     0.043500000000     0.515520000000     0.0154279  
C112     C      0.251830000000     0.042770000000     0.512900000000     0.0241144  
C113     C      0.364150000000     0.098330000000     0.504250000000     0.0164473  
C114     C      0.324970000000     0.083500000000     0.537100000000    -0.102404   
C115     C      0.677810000000     0.015750000000     0.568970000000     0.017856   
C116     C      0.863710000000     0.015220000000     0.470520000000     0.0200384  
C117     C      0.862430000000     0.977490000000     0.550260000000     0.0618111  
C118     C      0.826420000000     0.049610000000     0.485510000000    -0.10714    
C119     C      0.718240000000     0.995290000000     0.541730000000    -0.102118   
C120     C      0.822450000000     0.009030000000     0.564870000000    -0.117141   
C121     C      0.749820000000     0.033030000000     0.523270000000     0.0162523  
C122     C      0.796550000000     0.028130000000     0.523050000000     0.0243282  
C123     C      0.686610000000     0.091430000000     0.527120000000     0.0178929  
C124     C      0.726040000000     0.072030000000     0.497340000000    -0.103055   
C125     C      0.018170000000     0.846470000000     0.485740000000     0.0176035  
C126     C      0.114380000000     0.668400000000     0.527690000000     0.0204078  
C127     C      0.037110000000     0.668380000000     0.485600000000     0.0613289  
C128     C      0.102960000000     0.714990000000     0.550270000000    -0.107412   
C129     C      0.055210000000     0.812430000000     0.470000000000    -0.102673   
C130     C      0.026600000000     0.716410000000     0.505210000000    -0.117045   
C131     C      0.075360000000     0.787960000000     0.511930000000     0.0165004  
C132     C      0.070180000000     0.741850000000     0.519430000000     0.0252161  
C133     C      0.057620000000     0.853870000000     0.564160000000     0.0167835  
C134     C      0.095430000000     0.819910000000     0.548510000000    -0.103402   
C135     C      0.003160000000     0.357060000000     0.572410000000     0.0164115  
C136     C      0.026280000000     0.170200000000     0.471650000000     0.0198841  
C137     C      0.978680000000     0.167760000000     0.545640000000     0.0608723  
C138     C      0.052910000000     0.212240000000     0.489510000000    -0.105742   
C139     C      0.987400000000     0.317720000000     0.540320000000    -0.101989   
C140     C      0.001420000000     0.212710000000     0.562410000000    -0.115951   
C141     C      0.027510000000     0.286900000000     0.525900000000     0.0154971  
C142     C      0.023490000000     0.240060000000     0.523050000000     0.0228112  
C143     C      0.084670000000     0.348300000000     0.543480000000     0.0173117  
C144     C      0.069690000000     0.312110000000     0.507720000000    -0.102507   
H1       H      0.714450000000     0.496170000000     0.109220000000     0.0425344  
H2       H      0.834540000000     0.398130000000     0.059730000000     0.0270252  
H3       H      0.682610000000     0.516900000000     0.967050000000     0.027279   
H4       H      0.716010000000     0.439660000000     0.967180000000     0.0415245  
H5       H      0.778680000000     0.404700000000     0.998090000000     0.0426268  
H6       H      0.775770000000     0.529200000000     0.084180000000     0.0483138  
H7       H      0.635460000000     0.528340000000     0.093090000000     0.032666   
H8       H      0.864390000000     0.402680000000     0.005040000000     0.029822   
H9       H      0.674140000000     0.418800000000     0.008420000000     0.0479342  
H10      H      0.802850000000     0.533130000000     0.029210000000     0.0537418  
H11      H      0.639630000000     0.474280000000     0.953260000000     0.0324289  
H12      H      0.673940000000     0.453510000000     0.092950000000     0.0496925  
H13      H      0.805970000000     0.455270000000     0.973620000000     0.0497106  
H14      H      0.862080000000     0.527030000000     0.086110000000     0.0265094  
H15      H      0.678760000000     0.552470000000     0.055710000000     0.0249579  
H16      H      0.797440000000     0.438320000000     0.134310000000     0.0333847  
H17      H      0.222890000000     0.446220000000     0.963750000000     0.0416125  
H18      H      0.327660000000     0.595920000000     0.013720000000     0.0237487  
H19      H      0.176890000000     0.517080000000     0.083750000000     0.0233244  
H20      H      0.213480000000     0.578740000000     0.037350000000     0.0415072  
H21      H      0.276600000000     0.554170000000     0.066440000000     0.0425893  
H22      H      0.282210000000     0.485300000000     0.930610000000     0.04804    
H23      H      0.143500000000     0.427600000000     0.989830000000     0.0314729  
H24      H      0.360410000000     0.570950000000     0.060010000000     0.0311116  
H25      H      0.175980000000     0.567740000000     0.990010000000     0.0504867  
H26      H      0.313700000000     0.458720000000     0.977460000000     0.0518065  
H27      H      0.134170000000     0.556980000000     0.063320000000     0.0319423  
H28      H      0.181570000000     0.488220000000     0.943630000000     0.0481512  
H29      H      0.310300000000     0.503320000000     0.062030000000     0.0514926  
H30      H      0.367500000000     0.499540000000     0.928860000000     0.0262758  
H31      H      0.183260000000     0.435660000000     0.037320000000     0.0257766  
H32      H      0.288860000000     0.590270000000     0.930670000000     0.0328859  
H33      H      0.543690000000     0.809350000000     0.943120000000     0.0428476  
H34      H      0.529370000000     0.702290000000     0.059550000000     0.0264808  
H35      H      0.411870000000     0.859220000000     0.962860000000     0.0248474  
H36      H      0.416550000000     0.803020000000     0.024800000000     0.0416887  
H37      H      0.456810000000     0.744110000000     0.060020000000     0.0425379  
H38      H      0.519550000000     0.744050000000     0.920660000000     0.0478755  
H39      H      0.536130000000     0.895120000000     0.940710000000     0.0317753  
H40      H      0.481750000000     0.664480000000     0.071160000000     0.0320737  
H41      H      0.463820000000     0.832810000000     0.052890000000     0.0490872  
H42      H      0.470620000000     0.709430000000     0.930650000000     0.0533289  
H43      H      0.409040000000     0.887940000000     0.018470000000     0.0315318  
H44      H      0.546320000000     0.835170000000     0.999140000000     0.0510665  
H45      H      0.431800000000     0.707050000000     0.016270000000     0.0500164  
H46      H      0.535420000000     0.659200000000     0.931400000000     0.0274467  
H47      H      0.488170000000     0.865180000000     0.915370000000     0.0231237  
H48      H      0.588670000000     0.740570000000     0.002120000000     0.0329043  
H49      H      0.572340000000     0.237870000000     0.010400000000     0.0413912  
H50      H      0.425570000000     0.355390000000     0.036340000000     0.0237976  
H51      H      0.482170000000     0.189360000000     0.114060000000     0.0223552  
H52      H      0.434980000000     0.245210000000     0.073280000000     0.041166   
H53      H      0.462710000000     0.309140000000     0.096550000000     0.0421554  
H54      H      0.540290000000     0.296270000000     0.965800000000     0.0477191  
H55      H      0.574810000000     0.154570000000     0.027150000000     0.0319474  
H56      H      0.450580000000     0.392560000000     0.079100000000     0.0312203  
H57      H      0.438900000000     0.214340000000     0.020040000000     0.050513   
H58      H      0.563910000000     0.332600000000     0.010560000000     0.0505835  
H59      H      0.436970000000     0.159350000000     0.083960000000     0.0308473  
H60      H      0.527450000000     0.207330000000     0.979290000000     0.0494857  
H61      H      0.515150000000     0.340100000000     0.090860000000     0.0508413  
H62      H      0.528010000000     0.380060000000     0.951930000000     0.0251475  
H63      H      0.564610000000     0.188830000000     0.078420000000     0.0245199  
H64      H      0.433730000000     0.305730000000     0.959490000000     0.0329691  
H65      H      0.545280000000     0.094130000000     0.799640000000     0.0438705  
H66      H      0.504090000000     0.996070000000     0.687010000000     0.0272508  
H67      H      0.414580000000     0.092490000000     0.859170000000     0.0253323  
H68      H      0.405980000000     0.035720000000     0.798130000000     0.0415125  
H69      H      0.433080000000     0.005830000000     0.730390000000     0.0425433  
H70      H      0.515790000000     0.132140000000     0.743080000000     0.0479073  
H71      H      0.543920000000     0.091200000000     0.886600000000     0.0313122  
H72      H      0.456110000000     0.999970000000     0.647600000000     0.0303218  
H73      H      0.450570000000     0.999090000000     0.822130000000     0.0490766  
H74      H      0.467000000000     0.131020000000     0.706550000000     0.0517329  
H75      H      0.405690000000     0.036310000000     0.884500000000     0.0312654  
H76      H      0.539130000000     0.037310000000     0.821790000000     0.0509357  
H77      H      0.416680000000     0.056290000000     0.697690000000     0.0485785  
H78      H      0.532320000000     0.125900000000     0.657000000000     0.0273727  
H79      H      0.499430000000     0.126690000000     0.862130000000     0.0229578  
H80      H      0.573750000000     0.036270000000     0.726620000000     0.0333932  
H81      H      0.589580000000     0.983890000000     0.228380000000     0.0421871  
H82      H      0.563010000000     0.105950000000     0.335010000000     0.0266205  
H83      H      0.454470000000     0.966790000000     0.201690000000     0.0238854  
H84      H      0.450380000000     0.040590000000     0.242560000000     0.0414403  
H85      H      0.494320000000     0.094260000000     0.288090000000     0.0425148  
H86      H      0.577330000000     0.969020000000     0.300120000000     0.0475088  
H87      H      0.571770000000     0.966090000000     0.143890000000     0.0319992  
H88      H      0.511970000000     0.113480000000     0.369810000000     0.0314477  
H89      H      0.486070000000     0.068570000000     0.199300000000     0.0498339  
H90      H      0.524990000000     0.969510000000     0.331810000000     0.0525708  
H91      H      0.431340000000     0.011420000000     0.165130000000     0.0326148  
H92      H      0.577680000000     0.033170000000     0.193670000000     0.0500946  
H93      H      0.471870000000     0.051270000000     0.327710000000     0.0493336  
H94      H      0.583890000000     0.984720000000     0.386660000000     0.0266327  
H95      H      0.536330000000     0.936340000000     0.185440000000     0.023281   
H96      H      0.631820000000     0.055170000000     0.302330000000     0.0331106  
H97      H      0.004160000000     0.580710000000     0.825270000000     0.042378   
H98      H      0.119600000000     0.543510000000     0.714490000000     0.0268812  
H99      H      0.982050000000     0.441640000000     0.849050000000     0.024877   
H100     H      0.059800000000     0.439880000000     0.816580000000     0.0413958  
H101     H      0.106760000000     0.477880000000     0.764500000000     0.0424179  
H102     H      0.983320000000     0.564420000000     0.756220000000     0.0478212  
H103     H      0.972530000000     0.561190000000     0.904340000000     0.0322303  
H104     H      0.121420000000     0.491410000000     0.680640000000     0.0313725  
H105     H      0.081940000000     0.477000000000     0.861810000000     0.0488317  
H106     H      0.981840000000     0.511800000000     0.725270000000     0.0531973  
H107     H      0.023350000000     0.421670000000     0.891200000000     0.0325358  
H108     H      0.047370000000     0.564190000000     0.865510000000     0.0502557  
H109     H      0.060750000000     0.455820000000     0.728210000000     0.0492989  
H110     H      0.996490000000     0.570960000000     0.670060000000     0.0268197  
H111     H      0.948980000000     0.525920000000     0.858800000000     0.0237231  
H112     H      0.073900000000     0.614480000000     0.750690000000     0.0332523  
H113     H      0.075890000000     0.402950000000     0.250430000000     0.0417654  
H114     H      0.025580000000     0.544010000000     0.356240000000     0.0251369  
H115     H      0.954910000000     0.475850000000     0.219610000000     0.0248179  
H116     H      0.999240000000     0.532680000000     0.266030000000     0.0427185  
H117     H      0.967710000000     0.490980000000     0.320520000000     0.0435295  
H118     H      0.105940000000     0.428980000000     0.317090000000     0.0475918  
H119     H      0.050480000000     0.399330000000     0.167240000000     0.0311133  
H120     H      0.985180000000     0.523610000000     0.398490000000     0.0325811  
H121     H      0.045540000000     0.530160000000     0.225790000000     0.0513789  
H122     H      0.063430000000     0.407400000000     0.356800000000     0.0501382  
H123     H      0.971400000000     0.524230000000     0.184450000000     0.0328317  
H124     H      0.094670000000     0.452290000000     0.217170000000     0.049071   
H125     H      0.982830000000     0.447320000000     0.360940000000     0.0517525  
H126     H      0.116330000000     0.454240000000     0.400750000000     0.0242832  
H127     H      0.003650000000     0.397310000000     0.208460000000     0.0265517  
H128     H      0.104580000000     0.538320000000     0.314290000000     0.0336443  
H129     H      0.308990000000     0.974640000000     0.483270000000     0.0431577  
H130     H      0.193970000000     0.013490000000     0.585990000000     0.0265684  
H131     H      0.348660000000     0.113570000000     0.472250000000     0.0246688  
H132     H      0.302710000000     0.114210000000     0.542780000000     0.0412416  
H133     H      0.240610000000     0.081650000000     0.577280000000     0.0422749  
H134     H      0.248970000000     0.000020000000     0.448800000000     0.0476762  
H135     H      0.391130000000     0.989130000000     0.461860000000     0.0319314  
H136     H      0.156990000000     0.063120000000     0.582710000000     0.0305182  
H137     H      0.339520000000     0.072620000000     0.571240000000     0.0484997  
H138     H      0.214210000000     0.049880000000     0.449620000000     0.0523665  
H139     H      0.384770000000     0.125650000000     0.521780000000     0.032487   
H140     H      0.343420000000     0.987140000000     0.532580000000     0.050888   
H141     H      0.208510000000     0.101600000000     0.527250000000     0.0484683  
H142     H      0.164500000000     0.984760000000     0.456050000000     0.0269499  
H143     H      0.352910000000     0.030310000000     0.435540000000     0.0227394  
H144     H      0.237260000000     0.945440000000     0.544000000000     0.0333288  
H145     H      0.735820000000     0.969200000000     0.563620000000     0.0431962  
H146     H      0.846930000000     0.985650000000     0.452510000000     0.0268682  
H147     H      0.701630000000     0.108590000000     0.558340000000     0.0260235  
H148     H      0.750000000000     0.101110000000     0.489990000000     0.0430841  
H149     H      0.806200000000     0.058490000000     0.453830000000     0.0439895  
H150     H      0.800380000000     0.991290000000     0.590820000000     0.0482852  
H151     H      0.652920000000     0.987900000000     0.577920000000     0.0330984  
H152     H      0.886610000000     0.032590000000     0.444800000000     0.0331042  
H153     H      0.712210000000     0.058880000000     0.463710000000     0.0514792  
H154     H      0.837390000000     0.039040000000     0.583770000000     0.0540582  
H155     H      0.667970000000     0.118030000000     0.506450000000     0.0334739  
H156     H      0.704190000000     0.976180000000     0.511260000000     0.0518326  
H157     H      0.842760000000     0.081600000000     0.499190000000     0.0525593  
H158     H      0.884190000000     0.971470000000     0.581610000000     0.0273541  
H159     H      0.691450000000     0.029920000000     0.602290000000     0.0248141  
H160     H      0.802640000000     0.926660000000     0.505390000000     0.0334747  
H161     H      0.041550000000     0.788660000000     0.443010000000     0.0432805  
H162     H      0.135800000000     0.674490000000     0.496100000000     0.0276435  
H163     H      0.030630000000     0.834390000000     0.583540000000     0.0269797  
H164     H      0.108220000000     0.801540000000     0.579900000000     0.0427675  
H165     H      0.136200000000     0.733550000000     0.555240000000     0.0435658  
H166     H      0.004250000000     0.735660000000     0.480580000000     0.0487795  
H167     H      0.005740000000     0.866410000000     0.455110000000     0.0333657  
H168     H      0.135500000000     0.647980000000     0.552690000000     0.0317323  
H169     H      0.124840000000     0.839410000000     0.533220000000     0.0515042  
H170     H      0.005390000000     0.711980000000     0.537220000000     0.0542807  
H171     H      0.073280000000     0.879310000000     0.588530000000     0.0332202  
H172     H      0.083380000000     0.832160000000     0.452770000000     0.0517575  
H173     H      0.086740000000     0.709410000000     0.584960000000     0.05152    
H174     H      0.003860000000     0.649210000000     0.484030000000     0.0270386  
H175     H      0.988290000000     0.826490000000     0.499440000000     0.0246848  
H176     H      0.090400000000     0.706280000000     0.423060000000     0.0337049  
H177     H      0.958510000000     0.298990000000     0.557080000000     0.0422028  
H178     H      0.997300000000     0.182190000000     0.449270000000     0.0264442  
H179     H      0.095880000000     0.330360000000     0.575870000000     0.0246624  
H180     H      0.099610000000     0.288720000000     0.502270000000     0.0412181  
H181     H      0.062700000000     0.233040000000     0.458460000000     0.0421113  
H182     H      0.976290000000     0.232660000000     0.583400000000     0.0475742  
H183     H      0.974410000000     0.382120000000     0.576840000000     0.032006   
H184     H      0.049910000000     0.149330000000     0.449490000000     0.030982   
H185     H      0.061270000000     0.329060000000     0.474000000000     0.0488388  
H186     H      0.029590000000     0.203310000000     0.587000000000     0.0523478  
H187     H      0.115050000000     0.367060000000     0.529260000000     0.0327987  
H188     H      0.972810000000     0.333240000000     0.508080000000     0.0498562  
H189     H      0.084960000000     0.200780000000     0.507480000000     0.0488238  
H190     H      0.972170000000     0.146110000000     0.576960000000     0.0266968  
H191     H      0.010730000000     0.342090000000     0.607290000000     0.0233015  
H192     H      0.925110000000     0.218270000000     0.493310000000     0.0331079  
N1       N      0.867710000000     0.462490000000     0.049230000000    -0.192191   
N2       N      0.634190000000     0.505780000000     0.021330000000    -0.187705   
N3       N      0.367970000000     0.538640000000     0.992500000000    -0.192399   
N4       N      0.135180000000     0.490200000000     0.029690000000    -0.188569   
N5       N      0.513210000000     0.657790000000     0.003000000000    -0.192045   
N6       N      0.472710000000     0.895760000000     0.980310000000    -0.188907   
N7       N      0.485470000000     0.390050000000     0.012520000000    -0.193015   
N8       N      0.505470000000     0.152580000000     0.055040000000    -0.189132   
N9       N      0.501330000000     0.058880000000     0.649160000000    -0.192668   
N10      N      0.474590000000     0.063960000000     0.889860000000    -0.189142   
N11      N      0.550450000000     0.050920000000     0.382210000000    -0.192272   
N12      N      0.501280000000     0.989490000000     0.149680000000    -0.188742   
N13      N      0.060930000000     0.533790000000     0.671260000000    -0.192504   
N14      N      0.996250000000     0.490550000000     0.902080000000    -0.188713   
N15      N      0.054090000000     0.494480000000     0.402460000000    -0.192488   
N16      N      0.008540000000     0.460610000000     0.171970000000    -0.188763   
N17      N      0.157050000000     0.018870000000     0.522420000000    -0.192954   
N18      N      0.392240000000     0.057900000000     0.491060000000    -0.189125   
N19      N      0.889150000000     0.998260000000     0.511690000000    -0.192563   
N20      N      0.656280000000     0.053520000000     0.542320000000    -0.188787   
N21      N      0.071760000000     0.643860000000     0.514230000000    -0.192511   
N22      N      0.036170000000     0.876340000000     0.523290000000    -0.188295   
N23      N      0.007780000000     0.143480000000     0.511120000000    -0.192409   
N24      N      0.045540000000     0.379030000000     0.554460000000    -0.188655   
O1       O      0.023080000000     0.073940000000     0.476150000000    -0.558543   
O2       O      0.025900000000     0.942990000000     0.481530000000    -0.55819    
O3       O      0.959260000000     0.007030000000     0.475980000000    -0.561742   
O4       O      0.089880000000     0.009540000000     0.481430000000    -0.562244   
O5       O      0.086140000000     0.022300000000     0.558050000000    -0.556302   
O6       O      0.956740000000     0.000520000000     0.553440000000    -0.556549   
O7       O      0.032390000000     0.946990000000     0.558940000000    -0.556917   
O8       O      0.010190000000     0.075990000000     0.552810000000    -0.557388   
O9       O      0.013350000000     0.451680000000     0.549610000000    -0.554625   
O10      O      0.026280000000     0.580040000000     0.524640000000    -0.558369   
O11      O      0.017850000000     0.505140000000     0.472470000000    -0.561971   
O12      O      0.021420000000     0.528730000000     0.602270000000    -0.560362   
O13      O      0.097320000000     0.515210000000     0.602710000000    -0.557512   
O14      O      0.094780000000     0.499760000000     0.471010000000    -0.55435    
O15      O      0.102910000000     0.572710000000     0.529420000000    -0.55858    
O16      O      0.089780000000     0.443490000000     0.544080000000    -0.564187   
O17      O      0.506550000000     0.019020000000     0.580370000000    -0.557203   
O18      O      0.541060000000     0.014760000000     0.452700000000    -0.556651   
O19      O      0.586960000000     0.016090000000     0.534020000000    -0.556122   
O20      O      0.460290000000     0.018040000000     0.499310000000    -0.556605   
O21      O      0.460470000000     0.094710000000     0.506630000000    -0.561955   
O22      O      0.590330000000     0.092170000000     0.522320000000    -0.561019   
O23      O      0.533140000000     0.091270000000     0.448700000000    -0.558593   
O24      O      0.517870000000     0.095220000000     0.580120000000    -0.558261   
O25      O      0.458390000000     0.090280000000     0.040690000000    -0.557253   
O26      O      0.443250000000     0.963890000000     0.008150000000    -0.558712   
O27      O      0.457310000000     0.010930000000     0.087270000000    -0.565668   
O28      O      0.443650000000     0.043530000000     0.960340000000    -0.561421   
O29      O      0.520230000000     0.041960000000     0.951250000000    -0.555874   
O30      O      0.532850000000     0.000100000000     0.076580000000    -0.5523     
O31      O      0.518710000000     0.958920000000     0.992970000000    -0.557624   
O32      O      0.534730000000     0.082590000000     0.032960000000    -0.560621   
O33      O      0.001150000000     0.445320000000     0.967130000000    -0.563543   
O34      O      0.010440000000     0.430690000000     0.098020000000    -0.558729   
O35      O      0.939690000000     0.431480000000     0.036040000000    -0.554554   
O36      O      0.070230000000     0.445000000000     0.027860000000    -0.558401   
O37      O      0.062670000000     0.520830000000     0.039320000000    -0.557886   
O38      O      0.932490000000     0.507530000000     0.046310000000    -0.56027    
O39      O      0.000690000000     0.506560000000     0.107610000000    -0.558732   
O40      O      0.993250000000     0.521410000000     0.976070000000    -0.554495   
O41      O      0.498700000000     0.456480000000     0.971440000000    -0.557826   
O42      O      0.512640000000     0.586930000000     0.966470000000    -0.554083   
O43      O      0.569850000000     0.513990000000     0.975750000000    -0.559981   
O44      O      0.440300000000     0.527770000000     0.961680000000    -0.556517   
O45      O      0.432360000000     0.534290000000     0.038800000000    -0.558335   
O46      O      0.562090000000     0.518010000000     0.053040000000    -0.553868   
O47      O      0.504540000000     0.590480000000     0.043730000000    -0.562123   
O48      O      0.488080000000     0.460790000000     0.048400000000    -0.559025   
S1       S      0.833550000000     0.468910000000     0.135740000000    -0.0646075  
S2       S      0.328130000000     0.569580000000     0.914020000000    -0.0599224  
S3       S      0.589810000000     0.701550000000     0.975100000000    -0.0628805  
S4       S      0.457570000000     0.340860000000     0.938360000000    -0.0601054  
S5       S      0.579670000000     0.072610000000     0.696600000000    -0.0629131  
S6       S      0.633610000000     0.034160000000     0.345120000000    -0.0658073  
S7       S      0.050610000000     0.617650000000     0.709200000000    -0.0646932  
S8       S      0.127550000000     0.518240000000     0.350820000000    -0.0569962  
S9       S      0.202650000000     0.939080000000     0.512020000000    -0.0659195  
S10      S      0.841030000000     0.922110000000     0.533000000000    -0.0638782  
S11      S      0.057300000000     0.672650000000     0.426790000000    -0.0629522  
S12      S      0.923220000000     0.179580000000     0.520770000000    -0.0661314  
V1       V      0.024700000000     0.008300000000     0.475530000000     1.3974     
V2       V      0.021260000000     0.011620000000     0.559100000000     1.38318    
V3       V      0.016610000000     0.516530000000     0.537430000000     1.39105    
V4       V      0.099300000000     0.507560000000     0.536830000000     1.39354    
V5       V      0.523610000000     0.013720000000     0.516630000000     1.38187    
V6       V      0.525490000000     0.096560000000     0.514310000000     1.39679    
V7       V      0.447590000000     0.027410000000     0.024410000000     1.39694    
V8       V      0.529720000000     0.020450000000     0.013140000000     1.38087    
V9       V      0.005520000000     0.435060000000     0.031990000000     1.39083    
V10      V      0.997060000000     0.517160000000     0.042490000000     1.388      
V11      V      0.505630000000     0.521330000000     0.965730000000     1.39228    
V12      V      0.496620000000     0.525930000000     0.049100000000     1.38781    


