data_structure

_audit_creation_method RASPA-1.0
_audit_creation_date 2023-5-25
_audit_author_name 'Poobodin Mano'

_cell_length_a    29.1298
_cell_length_b    29.2522
_cell_length_c    29.368
_cell_angle_alpha 90
_cell_angle_beta  90
_cell_angle_gamma 90
_cell_volume      25024.8

_symmetry_cell_setting          triclinic
_symmetry_space_group_name_Hall 'P 1'
_symmetry_space_group_name_H-M  'P 1'
_symmetry_Int_Tables_number     1

_symmetry_equiv_pos_as_xyz 'x,y,z'

loop_
_atom_site_label
_atom_site_type_symbol
_atom_site_fract_x
_atom_site_fract_y
_atom_site_fract_z
_atom_site_charge
C1       C      0.995040000000     0.082150000000     0.531660000000     0.473668   
C2       C      0.008230000000     0.910500000000     0.514380000000     0.473421   
C3       C      0.915800000000     0.990680000000     0.522360000000     0.473276   
C4       C      0.089090000000     0.004050000000     0.524490000000     0.471362   
C5       C      0.024060000000     0.405310000000     0.493780000000     0.475244   
C6       C      0.025360000000     0.578390000000     0.502050000000     0.47304    
C7       C      0.028040000000     0.495080000000     0.411120000000     0.474792   
C8       C      0.020300000000     0.486480000000     0.583150000000     0.475888   
C9       C      0.514870000000     0.032340000000     0.582070000000     0.472054   
C10      C      0.502640000000     0.040400000000     0.410320000000     0.473121   
C11      C      0.594470000000     0.043780000000     0.489690000000     0.475073   
C12      C      0.421860000000     0.027450000000     0.501580000000     0.47309    
C13      C      0.521200000000     0.104750000000     0.992600000000     0.47478    
C14      C      0.532040000000     0.932590000000     0.007300000000     0.476351   
C15      C      0.531600000000     0.024000000000     0.085180000000     0.475864   
C16      C      0.520260000000     0.010950000000     0.913490000000     0.475413   
C17      C      0.017610000000     0.501720000000     0.914350000000     0.474755   
C18      C      0.000160000000     0.513330000000     0.085530000000     0.476247   
C19      C      0.922450000000     0.499220000000     0.991400000000     0.474324   
C20      C      0.094750000000     0.514200000000     0.008510000000     0.475765   
C21      C      0.496420000000     0.433700000000     0.025230000000     0.476083   
C22      C      0.515000000000     0.605750000000     0.023810000000     0.474488   
C23      C      0.592010000000     0.511480000000     0.017010000000     0.476357   
C24      C      0.419920000000     0.529710000000     0.032790000000     0.476188   
C25      C      0.853450000000     0.451150000000     0.998900000000     0.0176885  
C26      C      0.661840000000     0.529720000000     0.973330000000     0.0203973  
C27      C      0.666550000000     0.493360000000     0.052290000000     0.103492   
C28      C      0.703820000000     0.502210000000     0.958350000000    -0.108925   
C29      C      0.809640000000     0.460730000000     0.025890000000    -0.101516   
C30      C      0.706970000000     0.463560000000     0.036010000000    -0.134123   
C31      C      0.779320000000     0.493120000000     0.999340000000     0.0126956  
C32      C      0.732840000000     0.488180000000     0.998700000000     0.0279602  
C33      C      0.848800000000     0.528480000000     0.961170000000     0.015965   
C34      C      0.802150000000     0.537110000000     0.983740000000    -0.100466   
C35      C      0.683280000000     0.534520000000     0.080330000000    -0.19266    
C36      C      0.167110000000     0.555650000000     0.992650000000     0.0161463  
C37      C      0.351020000000     0.525670000000     0.081110000000     0.021372   
C38      C      0.347770000000     0.562500000000     0.002660000000     0.0998489  
C39      C      0.304900000000     0.502250000000     0.072880000000    -0.109353   
C40      C      0.202930000000     0.574580000000     0.025690000000    -0.100966   
C41      C      0.299400000000     0.542530000000     0.995760000000    -0.131709   
C42      C      0.230240000000     0.535960000000     0.046780000000     0.0130387  
C43      C      0.276210000000     0.530390000000     0.040430000000     0.0276372  
C44      C      0.167350000000     0.480560000000     0.035790000000     0.0169013  
C45      C      0.201180000000     0.500350000000     0.070550000000    -0.102176   
C46      C      0.345230000000     0.613220000000     0.015940000000    -0.192854   
C47      C      0.500880000000     0.680810000000     0.059660000000     0.0156946  
C48      C      0.578950000000     0.863160000000     0.002210000000     0.0222333  
C49      C      0.502250000000     0.862800000000     0.044030000000     0.0992609  
C50      C      0.569470000000     0.815430000000     0.983490000000    -0.11001    
C51      C      0.531890000000     0.721770000000     0.069940000000    -0.100885   
C52      C      0.495050000000     0.812770000000     0.029330000000    -0.131704   
C53      C      0.547700000000     0.744570000000     0.026380000000     0.0131796  
C54      C      0.539640000000     0.789330000000     0.016520000000     0.0277521  
C55      C      0.536790000000     0.674620000000     0.981080000000     0.0177529  
C56      C      0.570720000000     0.712700000000     0.992930000000    -0.102588   
C57      C      0.517970000000     0.865340000000     0.093900000000    -0.192187   
C58      C      0.477870000000     0.174640000000     0.971560000000     0.0162095  
C59      C      0.509540000000     0.360130000000     0.063900000000     0.0214472  
C60      C      0.462510000000     0.363920000000     0.991130000000     0.100041   
C61      C      0.535810000000     0.318620000000     0.045990000000    -0.108818   
C62      C      0.465620000000     0.216660000000     0.000290000000    -0.100882   
C63      C      0.484980000000     0.319120000000     0.974840000000    -0.131237   
C64      C      0.507690000000     0.245140000000     0.011740000000     0.0133442  
C65      C      0.505910000000     0.291660000000     0.013510000000     0.0264424  
C66      C      0.560040000000     0.179510000000     0.997960000000     0.0177097  
C67      C      0.548150000000     0.218630000000     0.030440000000    -0.102027   
C68      C      0.414380000000     0.354830000000     0.010440000000    -0.193439   
C69      C      0.501640000000     0.069040000000     0.656380000000     0.0174441  
C70      C      0.554780000000     0.987210000000     0.840180000000     0.019974   
C71      C      0.471780000000     0.013830000000     0.844690000000     0.103091   
C72      C      0.560430000000     0.011570000000     0.794310000000    -0.108226   
C73      C      0.478420000000     0.050760000000     0.699360000000    -0.101777   
C74      C      0.478110000000     0.041330000000     0.800490000000    -0.133436   
C75      C      0.511100000000     0.019420000000     0.724460000000     0.0130434  
C76      C      0.514810000000     0.020030000000     0.770780000000     0.0268609  
C77      C      0.550130000000     0.997700000000     0.650500000000     0.0154298  
C78      C      0.530770000000     0.980730000000     0.696030000000    -0.100755   
C79      C      0.447570000000     0.967970000000     0.835910000000    -0.192911   
C80      C      0.516050000000     0.084820000000     0.339920000000     0.0160932  
C81      C      0.500320000000     0.996600000000     0.157980000000     0.0216487  
C82      C      0.574640000000     0.042500000000     0.155440000000     0.102158   
C83      C      0.484960000000     0.022630000000     0.200160000000    -0.108936   
C84      C      0.550250000000     0.072600000000     0.302020000000    -0.101456   
C85      C      0.559430000000     0.068750000000     0.198640000000    -0.133165   
C86      C      0.529470000000     0.035810000000     0.272250000000     0.0125434  
C87      C      0.526020000000     0.040310000000     0.226270000000     0.0277302  
C88      C      0.481350000000     0.005790000000     0.336270000000     0.0163573  
C89      C      0.513740000000     0.993270000000     0.297320000000    -0.100666   
C90      C      0.609230000000     0.004560000000     0.166990000000    -0.192692   
C91      C      0.049100000000     0.462840000000     0.846110000000     0.0155058  
C92      C      0.973560000000     0.490710000000     0.652630000000     0.0225246  
C93      C      0.054290000000     0.457750000000     0.654930000000     0.0991921  
C94      C      0.981830000000     0.515980000000     0.697220000000    -0.10912    
C95      C      0.027760000000     0.447960000000     0.800620000000    -0.101114   
C96      C      0.060700000000     0.478010000000     0.703050000000    -0.131118   
C97      C      0.011410000000     0.488420000000     0.772500000000     0.0134779  
C98      C      0.015630000000     0.489770000000     0.726280000000     0.0264569  
C99      C      0.008680000000     0.538990000000     0.839850000000     0.0178665  
C100     C      0.982340000000     0.522700000000     0.798060000000    -0.102151   
C101     C      0.043920000000     0.406330000000     0.657500000000    -0.1924     
C102     C      0.993800000000     0.469630000000     0.338820000000     0.0181034  
C103     C      0.012370000000     0.558710000000     0.155320000000     0.0200861  
C104     C      0.975140000000     0.479970000000     0.158880000000     0.101082   
C105     C      0.043540000000     0.546670000000     0.195740000000    -0.109045   
C106     C      0.977350000000     0.498220000000     0.298700000000    -0.101263   
C107     C      0.004170000000     0.468740000000     0.201040000000    -0.132366   
C108     C      0.017920000000     0.515620000000     0.271560000000     0.0133203  
C109     C      0.019930000000     0.511630000000     0.225450000000     0.0272322  
C110     C      0.069470000000     0.511930000000     0.339480000000     0.0166249  
C111     C      0.053740000000     0.541340000000     0.298870000000    -0.101886   
C112     C      0.926140000000     0.493740000000     0.172440000000    -0.193899   
C113     C      0.162320000000     0.995150000000     0.565700000000     0.0169649  
C114     C      0.344630000000     0.057690000000     0.483870000000     0.0192534  
C115     C      0.355120000000     0.977950000000     0.517420000000     0.101943   
C116     C      0.300720000000     0.063730000000     0.511830000000    -0.108107   
C117     C      0.209020000000     0.976000000000     0.551120000000    -0.101624   
C118     C      0.312030000000     0.985060000000     0.547060000000    -0.133223   
C119     C      0.233440000000     0.009850000000     0.520560000000     0.0130173  
C120     C      0.279440000000     0.018100000000     0.524120000000     0.0269461  
C121     C      0.157940000000     0.042450000000     0.493840000000     0.0156133  
C122     C      0.205700000000     0.025820000000     0.479830000000    -0.100949   
C123     C      0.344530000000     0.948510000000     0.475340000000    -0.191845   
C124     C      0.841910000000     0.004020000000     0.561980000000     0.0154932  
C125     C      0.666580000000     0.015630000000     0.455830000000     0.0218289  
C126     C      0.666520000000     0.084420000000     0.508610000000     0.101292   
C127     C      0.706150000000     0.994210000000     0.482070000000    -0.107945   
C128     C      0.808690000000     0.042590000000     0.548510000000    -0.10112    
C129     C      0.707730000000     0.063960000000     0.534970000000    -0.132148   
C130     C      0.781260000000     0.027990000000     0.507090000000     0.0125863  
C131     C      0.734590000000     0.030640000000     0.505570000000     0.0267245  
C132     C      0.843060000000     0.974540000000     0.481500000000     0.0171002  
C133     C      0.809740000000     0.012030000000     0.466830000000    -0.100874   
C134     C      0.682120000000     0.121060000000     0.474490000000    -0.192622   
C135     C      0.068630000000     0.650630000000     0.497110000000     0.0172607  
C136     C      0.983060000000     0.834630000000     0.541100000000     0.0199843  
C137     C      0.028160000000     0.843500000000     0.467190000000     0.101868   
C138     C      0.007810000000     0.789580000000     0.550730000000    -0.108693   
C139     C      0.058280000000     0.695970000000     0.473030000000    -0.102017   
C140     C      0.054630000000     0.799100000000     0.478050000000    -0.13308    
C141     C      0.022320000000     0.722050000000     0.499570000000     0.0131271  
C142     C      0.025650000000     0.767880000000     0.507410000000     0.0271652  
C143     C      0.988290000000     0.648870000000     0.529870000000     0.015929   
C144     C      0.978460000000     0.695720000000     0.508830000000    -0.100844   
C145     C      0.989760000000     0.834990000000     0.432280000000    -0.19144    
C146     C      0.007360000000     0.152900000000     0.576140000000     0.0160383  
C147     C      0.984180000000     0.332770000000     0.476050000000     0.0211427  
C148     C      0.063510000000     0.332830000000     0.512530000000     0.100738   
C149     C      0.967720000000     0.297710000000     0.510800000000    -0.108104   
C150     C      0.035200000000     0.194750000000     0.560760000000    -0.101017   
C151     C      0.047130000000     0.296820000000     0.547490000000    -0.13237    
C152     C      0.007690000000     0.222870000000     0.526980000000     0.0127488  
C153     C      0.007670000000     0.269400000000     0.527920000000     0.026591   
C154     C      0.961690000000     0.154400000000     0.503380000000     0.0172767  
C155     C      0.987790000000     0.196520000000     0.487070000000    -0.100401   
C156     C      0.091070000000     0.310750000000     0.473730000000    -0.192551   
H1       H      0.792560000000     0.427240000000     0.031680000000     0.0399418  
H2       H      0.673390000000     0.564700000000     0.982690000000     0.0198276  
H3       H      0.842460000000     0.515130000000     0.926270000000     0.0224514  
H4       H      0.780700000000     0.557680000000     0.960300000000     0.0398294  
H5       H      0.723000000000     0.521480000000     0.932030000000     0.0420697  
H6       H      0.728780000000     0.455470000000     0.065980000000     0.0481087  
H7       H      0.875960000000     0.428830000000     0.019920000000     0.029812   
H8       H      0.638300000000     0.533530000000     0.943780000000     0.0298324  
H9       H      0.807770000000     0.558690000000     0.014400000000     0.0470749  
H10      H      0.693610000000     0.430700000000     0.022350000000     0.0534926  
H11      H      0.867260000000     0.561540000000     0.957440000000     0.0303887  
H12      H      0.818340000000     0.476090000000     0.059430000000     0.0460998  
H13      H      0.691620000000     0.470500000000     0.941360000000     0.0498881  
H14      H      0.645470000000     0.471670000000     0.075430000000     0.0100875  
H15      H      0.844390000000     0.432140000000     0.967330000000     0.0252645  
H16      H      0.706250000000     0.556910000000     0.060000000000     0.0666854  
H17      H      0.702280000000     0.522590000000     0.110900000000     0.0580789  
H18      H      0.653480000000     0.555090000000     0.091990000000     0.0713723  
H19      H      0.224500000000     0.600850000000     0.008890000000     0.0394922  
H20      H      0.345270000000     0.557680000000     0.100710000000     0.0223239  
H21      H      0.186910000000     0.461360000000     0.009440000000     0.0250185  
H22      H      0.221160000000     0.471450000000     0.084830000000     0.0400491  
H23      H      0.288190000000     0.498800000000     0.106720000000     0.0414924  
H24      H      0.278940000000     0.565500000000     0.973670000000     0.0490182  
H25      H      0.144370000000     0.583950000000     0.981260000000     0.0311278  
H26      H      0.372260000000     0.502610000000     0.102640000000     0.029308   
H27      H      0.181930000000     0.516610000000     0.098940000000     0.0471647  
H28      H      0.302920000000     0.510230000000     0.976110000000     0.054219   
H29      H      0.144620000000     0.455870000000     0.053730000000     0.0307982  
H30      H      0.184590000000     0.592720000000     0.053540000000     0.047787   
H31      H      0.310420000000     0.467570000000     0.058370000000     0.0477996  
H32      H      0.365440000000     0.561030000000     0.969100000000     0.014149   
H33      H      0.185320000000     0.542540000000     0.962030000000     0.0225099  
H34      H      0.325070000000     0.618060000000     0.047670000000     0.0659361  
H35      H      0.328790000000     0.633280000000     0.988260000000     0.0582051  
H36      H      0.380390000000     0.626930000000     0.021340000000     0.0663812  
H37      H      0.514770000000     0.745450000000     0.094030000000     0.0391944  
H38      H      0.601130000000     0.860320000000     0.032910000000     0.0226706  
H39      H      0.507160000000     0.689560000000     0.962360000000     0.0251782  
H40      H      0.580800000000     0.729400000000     0.960540000000     0.040103   
H41      H      0.603450000000     0.798890000000     0.978650000000     0.0416355  
H42      H      0.474820000000     0.794230000000     0.055410000000     0.0485221  
H43      H      0.495250000000     0.661060000000     0.091520000000     0.0297391  
H44      H      0.598540000000     0.882480000000     0.975980000000     0.0284225  
H45      H      0.602060000000     0.697830000000     0.008660000000     0.0470327  
H46      H      0.473090000000     0.812840000000     0.998360000000     0.0536662  
H47      H      0.554350000000     0.650140000000     0.957890000000     0.0297148  
H48      H      0.562880000000     0.709030000000     0.088030000000     0.0469157  
H49      H      0.551950000000     0.817840000000     0.949950000000     0.0486127  
H50      H      0.468170000000     0.879940000000     0.042380000000     0.0132014  
H51      H      0.466870000000     0.694010000000     0.048560000000     0.0207429  
H52      H      0.550640000000     0.846430000000     0.098970000000     0.0654831  
H53      H      0.491420000000     0.850440000000     0.116640000000     0.0571246  
H54      H      0.523250000000     0.901560000000     0.103980000000     0.0654503  
H55      H      0.438180000000     0.236120000000     0.982830000000     0.0396888  
H56      H      0.480800000000     0.348230000000     0.085800000000     0.0223445  
H57      H      0.572390000000     0.194160000000     0.965200000000     0.024811   
H58      H      0.579370000000     0.240230000000     0.033600000000     0.0403415  
H59      H      0.545860000000     0.297870000000     0.076090000000     0.0416503  
H60      H      0.460360000000     0.299520000000     0.953730000000     0.0484268  
H61      H      0.447640000000     0.151510000000     0.969810000000     0.0305655  
H62      H      0.533260000000     0.380350000000     0.085710000000     0.0294511  
H63      H      0.539400000000     0.204790000000     0.064610000000     0.0476166  
H64      H      0.513520000000     0.328280000000     0.951400000000     0.0545361  
H65      H      0.588660000000     0.159520000000     0.013180000000     0.0306868  
H66      H      0.450510000000     0.204630000000     0.032920000000     0.0481194  
H67      H      0.567460000000     0.329960000000     0.028100000000     0.0488379  
H68      H      0.457680000000     0.385920000000     0.960580000000     0.013862   
H69      H      0.485150000000     0.186420000000     0.936290000000     0.0223145  
H70      H      0.415620000000     0.329960000000     0.038990000000     0.0661861  
H71      H      0.391630000000     0.340860000000     0.983450000000     0.0582469  
H72      H      0.399090000000     0.387270000000     0.022970000000     0.0663168  
H73      H      0.468620000000     0.081000000000     0.720080000000     0.0404379  
H74      H      0.547690000000     0.950490000000     0.833430000000     0.0201441  
H75      H      0.583620000000     0.014640000000     0.657300000000     0.0225701  
H76      H      0.557540000000     0.960630000000     0.713750000000     0.0397745  
H77      H      0.585200000000     0.992060000000     0.773370000000     0.0419467  
H78      H      0.444300000000     0.042850000000     0.782990000000     0.0483232  
H79      H      0.476230000000     0.090240000000     0.637570000000     0.0309645  
H80      H      0.587980000000     0.988670000000     0.858790000000     0.0303804  
H81      H      0.502360000000     0.956440000000     0.688720000000     0.0473109  
H82      H      0.488450000000     0.076920000000     0.808980000000     0.0538815  
H83      H      0.557180000000     0.967770000000     0.628240000000     0.0312111  
H84      H      0.446750000000     0.031660000000     0.690170000000     0.0473036  
H85      H      0.576550000000     0.045420000000     0.800660000000     0.0499853  
H86      H      0.448570000000     0.034430000000     0.866760000000     0.0119615  
H87      H      0.530690000000     0.091610000000     0.666410000000     0.0251124  
H88      H      0.467170000000     0.946500000000     0.811520000000     0.0665552  
H89      H      0.412710000000     0.973970000000     0.821770000000     0.0583922  
H90      H      0.443850000000     0.948880000000     0.868390000000     0.0699504  
H91      H      0.557810000000     0.104480000000     0.282900000000     0.0398859  
H92      H      0.516180000000     0.963880000000     0.169060000000     0.017131   
H93      H      0.448380000000     0.017630000000     0.321250000000     0.0218832  
H94      H      0.497610000000     0.967220000000     0.275090000000     0.0392801  
H95      H      0.461530000000     0.000970000000     0.220580000000     0.0420746  
H96      H      0.590600000000     0.077970000000     0.218440000000     0.0480418  
H97      H      0.532700000000     0.109830000000     0.363160000000     0.0306792  
H98      H      0.469520000000     0.987470000000     0.137550000000     0.0286149  
H99      H      0.544620000000     0.976560000000     0.312090000000     0.0479316  
H100     H      0.542190000000     0.101080000000     0.188470000000     0.0529831  
H101     H      0.473830000000     0.974730000000     0.356760000000     0.0299522  
H102     H      0.582760000000     0.059820000000     0.317200000000     0.0466343  
H103     H      0.464240000000     0.052560000000     0.189120000000     0.0510052  
H104     H      0.592690000000     0.067440000000     0.133040000000     0.0100294  
H105     H      0.485660000000     0.101730000000     0.324330000000     0.0246114  
H106     H      0.594620000000     0.979810000000     0.191730000000     0.0657298  
H107     H      0.640830000000     0.019640000000     0.181910000000     0.0579725  
H108     H      0.619000000000     0.985800000000     0.135570000000     0.0699389  
H109     H      0.052260000000     0.425510000000     0.782470000000     0.03977    
H110     H      0.955680000000     0.457900000000     0.659850000000     0.0227132  
H111     H      0.039930000000     0.557770000000     0.828620000000     0.0248867  
H112     H      0.974560000000     0.553640000000     0.777560000000     0.0404678  
H113     H      0.947830000000     0.519170000000     0.714120000000     0.0418634  
H114     H      0.083170000000     0.455360000000     0.723470000000     0.048364   
H115     H      0.052720000000     0.432440000000     0.868540000000     0.0311166  
H116     H      0.950130000000     0.511960000000     0.631490000000     0.0295327  
H117     H      0.949430000000     0.506550000000     0.808490000000     0.0481542  
H118     H      0.080140000000     0.510530000000     0.699490000000     0.0539693  
H119     H      0.986400000000     0.563470000000     0.858590000000     0.0314603  
H120     H      0.997260000000     0.426410000000     0.808150000000     0.0477662  
H121     H      0.995420000000     0.550800000000     0.690240000000     0.049114   
H122     H      0.087740000000     0.461190000000     0.636940000000     0.0138588  
H123     H      0.084290000000     0.475820000000     0.839120000000     0.0228239  
H124     H      0.012530000000     0.399680000000     0.677920000000     0.065843   
H125     H      0.073150000000     0.387870000000     0.673370000000     0.0575093  
H126     H      0.038800000000     0.392380000000     0.622680000000     0.0656324  
H127     H      0.952140000000     0.478530000000     0.278380000000     0.039732   
H128     H      0.982050000000     0.577920000000     0.168100000000     0.0228854  
H129     H      0.089880000000     0.482610000000     0.326340000000     0.0249895  
H130     H      0.084680000000     0.549470000000     0.278280000000     0.0401938  
H131     H      0.050710000000     0.578890000000     0.214470000000     0.0416625  
H132     H      0.986070000000     0.443860000000     0.223160000000     0.0487532  
H133     H      0.963810000000     0.460090000000     0.360220000000     0.0297154  
H134     H      0.031700000000     0.581880000000     0.132200000000     0.029367   
H135     H      0.038740000000     0.573920000000     0.311450000000     0.0468828  
H136     H      0.035540000000     0.450550000000     0.189340000000     0.0548607  
H137     H      0.092190000000     0.532880000000     0.361650000000     0.0288349  
H138     H      0.958380000000     0.528310000000     0.312130000000     0.0492596  
H139     H      0.076590000000     0.532500000000     0.183150000000     0.0483926  
H140     H      0.971950000000     0.447950000000     0.138670000000     0.0134565  
H141     H      0.008720000000     0.437360000000     0.325300000000     0.0213794  
H142     H      0.926180000000     0.523810000000     0.195510000000     0.0665072  
H143     H      0.908810000000     0.464910000000     0.190080000000     0.0575383  
H144     H      0.905950000000     0.502290000000     0.141500000000     0.0656686  
H145     H      0.228540000000     0.969230000000     0.582910000000     0.0401781  
H146     H      0.334830000000     0.047290000000     0.448780000000     0.0208266  
H147     H      0.161780000000     0.076230000000     0.510820000000     0.0225924  
H148     H      0.222680000000     0.052800000000     0.459480000000     0.0398934  
H149     H      0.277160000000     0.087220000000     0.493740000000     0.0417613  
H150     H      0.296370000000     0.951010000000     0.553260000000     0.048253   
H151     H      0.143920000000     0.968220000000     0.585250000000     0.0307543  
H152     H      0.361990000000     0.091400000000     0.480980000000     0.0310048  
H153     H      0.201510000000     0.996140000000     0.456550000000     0.0475437  
H154     H      0.322270000000     0.999350000000     0.580640000000     0.053329   
H155     H      0.137080000000     0.048010000000     0.462640000000     0.0314416  
H156     H      0.204260000000     0.943180000000     0.532630000000     0.0469115  
H157     H      0.309830000000     0.081360000000     0.544130000000     0.0491728  
H158     H      0.379950000000     0.958350000000     0.538640000000     0.0126555  
H159     H      0.167990000000     0.024690000000     0.588900000000     0.0249917  
H160     H      0.317980000000     0.964740000000     0.453540000000     0.0663871  
H161     H      0.332030000000     0.914250000000     0.485960000000     0.0580161  
H162     H      0.376170000000     0.943720000000     0.454790000000     0.0693832  
H163     H      0.786620000000     0.049730000000     0.578500000000     0.0404658  
H164     H      0.680920000000     0.034440000000     0.426200000000     0.0191287  
H165     H      0.822750000000     0.943560000000     0.490260000000     0.0218728  
H166     H      0.789310000000     0.000470000000     0.437190000000     0.0393753  
H167     H      0.725870000000     0.971710000000     0.458940000000     0.0419018  
H168     H      0.729620000000     0.092610000000     0.547130000000     0.0483982  
H169     H      0.863870000000     0.016280000000     0.590430000000     0.0319157  
H170     H      0.644460000000     0.988040000000     0.441790000000     0.0294971  
H171     H      0.830100000000     0.041680000000     0.454460000000     0.0487914  
H172     H      0.694820000000     0.045390000000     0.565420000000     0.053091   
H173     H      0.865790000000     0.965490000000     0.452460000000     0.0299689  
H174     H      0.828400000000     0.074070000000     0.540290000000     0.047325   
H175     H      0.691680000000     0.971450000000     0.508770000000     0.0514985  
H176     H      0.644240000000     0.101820000000     0.534100000000     0.0116246  
H177     H      0.821470000000     0.974520000000     0.574660000000     0.0243492  
H178     H      0.707910000000     0.107330000000     0.450230000000     0.0658131  
H179     H      0.697650000000     0.150420000000     0.492880000000     0.0582676  
H180     H      0.652110000000     0.133820000000     0.454920000000     0.0684986  
H181     H      0.091190000000     0.715020000000     0.470770000000     0.0402398  
H182     H      0.949080000000     0.826650000000     0.525810000000     0.0206155  
H183     H      0.998410000000     0.654120000000     0.566010000000     0.0227412  
H184     H      0.953650000000     0.714310000000     0.530580000000     0.0400138  
H185     H      0.985030000000     0.766990000000     0.570870000000     0.042409   
H186     H      0.064570000000     0.782870000000     0.445280000000     0.0481596  
H187     H      0.092810000000     0.630740000000     0.475480000000     0.0296758  
H188     H      0.976170000000     0.852040000000     0.574050000000     0.0310622  
H189     H      0.960870000000     0.690350000000     0.475660000000     0.0477103  
H190     H      0.086720000000     0.807620000000     0.496710000000     0.0533621  
H191     H      0.956080000000     0.628480000000     0.530020000000     0.0308441  
H192     H      0.045570000000     0.689350000000     0.437960000000     0.0469225  
H193     H      0.037830000000     0.796910000000     0.572940000000     0.0498038  
H194     H      0.053160000000     0.867340000000     0.451060000000     0.0116475  
H195     H      0.086130000000     0.657930000000     0.530000000000     0.0257805  
H196     H      0.964570000000     0.809560000000     0.445070000000     0.0663981  
H197     H      0.004530000000     0.822150000000     0.399840000000     0.0578342  
H198     H      0.971350000000     0.867420000000     0.424990000000     0.0699635  
H199     H      0.043620000000     0.214700000000     0.591860000000     0.0399715  
H200     H      0.994680000000     0.314330000000     0.444640000000     0.0197144  
H201     H      0.929750000000     0.166090000000     0.520590000000     0.0216825  
H202     H      0.965170000000     0.216990000000     0.464670000000     0.0397856  
H203     H      0.939100000000     0.277300000000     0.496530000000     0.0416859  
H204     H      0.076960000000     0.275270000000     0.557200000000     0.0478133  
H205     H      0.029650000000     0.130900000000     0.597710000000     0.0304304  
H206     H      0.955010000000     0.355320000000     0.466520000000     0.0295898  
H207     H      0.016840000000     0.185050000000     0.465350000000     0.0484533  
H208     H      0.035040000000     0.314460000000     0.578800000000     0.0506537  
H209     H      0.951180000000     0.133610000000     0.473450000000     0.0302885  
H210     H      0.067760000000     0.183450000000     0.544530000000     0.0467518  
H211     H      0.952940000000     0.316380000000     0.540340000000     0.0503957  
H212     H      0.087460000000     0.355970000000     0.531030000000     0.0114321  
H213     H      0.978030000000     0.164770000000     0.597330000000     0.0246818  
H214     H      0.070610000000     0.284380000000     0.455630000000     0.0665223  
H215     H      0.122550000000     0.294350000000     0.487470000000     0.0583915  
H216     H      0.101650000000     0.337350000000     0.448860000000     0.0689655  
N1       N      0.638680000000     0.509030000000     0.013140000000    -0.200027   
N2       N      0.876090000000     0.494380000000     0.986380000000    -0.189052   
N3       N      0.373790000000     0.536790000000     0.037620000000    -0.199888   
N4       N      0.141210000000     0.517600000000     0.013500000000    -0.189373   
N5       N      0.535900000000     0.886640000000     0.014580000000    -0.200057   
N6       N      0.519890000000     0.652110000000     0.022820000000    -0.189805   
N7       N      0.491070000000     0.387270000000     0.025760000000    -0.199465   
N8       N      0.519070000000     0.151310000000     0.989250000000    -0.18889    
N9       N      0.516520000000     0.006240000000     0.867260000000    -0.199533   
N10      N      0.519440000000     0.031170000000     0.628390000000    -0.188389   
N11      N      0.534430000000     0.023030000000     0.131570000000    -0.200587   
N12      N      0.500860000000     0.043130000000     0.363930000000    -0.18892    
N13      N      0.017360000000     0.481240000000     0.629330000000    -0.199534   
N14      N      0.022560000000     0.499700000000     0.868120000000    -0.188966   
N15      N      0.996680000000     0.516890000000     0.131780000000    -0.199384   
N16      N      0.029540000000     0.494150000000     0.364710000000    -0.189424   
N17      N      0.375160000000     0.022300000000     0.503310000000    -0.198847   
N18      N      0.135560000000     0.010680000000     0.526000000000    -0.188118   
N19      N      0.640910000000     0.047820000000     0.485000000000    -0.199974   
N20      N      0.868910000000     0.989340000000     0.522050000000    -0.188852   
N21      N      0.008970000000     0.864010000000     0.509160000000    -0.19903    
N22      N      0.026060000000     0.624940000000     0.506290000000    -0.188464   
N23      N      0.023890000000     0.358590000000     0.493930000000    -0.200074   
N24      N      0.989430000000     0.128220000000     0.536250000000    -0.189023   
O1       O      0.992540000000     0.063950000000     0.491970000000    -0.55825    
O2       O      0.012250000000     0.936350000000     0.479250000000    -0.558893   
O3       O      0.938040000000     0.990820000000     0.484570000000    -0.556579   
O4       O      0.067150000000     0.010170000000     0.487010000000    -0.554922   
O5       O      0.067490000000     0.993130000000     0.561050000000    -0.557807   
O6       O      0.937250000000     0.992630000000     0.560500000000    -0.558713   
O7       O      0.002250000000     0.927980000000     0.554090000000    -0.556295   
O8       O      0.002000000000     0.057330000000     0.567100000000    -0.556669   
O9       O      0.985900000000     0.427300000000     0.492210000000    -0.559891   
O10      O      0.986820000000     0.557140000000     0.499360000000    -0.557144   
O11      O      0.988950000000     0.494270000000     0.431210000000    -0.563469   
O12      O      0.983230000000     0.489330000000     0.559730000000    -0.565421   
O13      O      0.059730000000     0.487250000000     0.563480000000    -0.556481   
O14      O      0.065560000000     0.495300000000     0.434170000000    -0.556129   
O15      O      0.063410000000     0.556240000000     0.501790000000    -0.559629   
O16      O      0.062430000000     0.426770000000     0.496200000000    -0.561559   
O17      O      0.521290000000     0.995930000000     0.558330000000    -0.55321    
O18      O      0.502370000000     0.001150000000     0.430040000000    -0.555665   
O19      O      0.575660000000     0.004450000000     0.484740000000    -0.561143   
O20      O      0.447620000000     0.991870000000     0.503090000000    -0.561136   
O21      O      0.439680000000     0.067510000000     0.497730000000    -0.554274   
O22      O      0.569980000000     0.079270000000     0.498550000000    -0.555678   
O23      O      0.505120000000     0.077280000000     0.433850000000    -0.561001   
O24      O      0.504790000000     0.070280000000     0.562550000000    -0.560732   
O25      O      0.484140000000     0.081150000000     0.996350000000    -0.556104   
O26      O      0.492340000000     0.951770000000     0.008030000000    -0.559035   
O27      O      0.492140000000     0.020660000000     0.066100000000    -0.563609   
O28      O      0.483690000000     0.011370000000     0.937880000000    -0.564101   
O29      O      0.560010000000     0.014600000000     0.932190000000    -0.556471   
O30      O      0.568420000000     0.026330000000     0.061130000000    -0.558583   
O31      O      0.568560000000     0.956400000000     0.001510000000    -0.565416   
O32      O      0.560540000000     0.085050000000     0.992040000000    -0.56348    
O33      O      0.020940000000     0.465300000000     0.938760000000    -0.554027   
O34      O      0.002290000000     0.473670000000     0.066890000000    -0.559405   
O35      O      0.947460000000     0.463340000000     0.995260000000    -0.563502   
O36      O      0.075600000000     0.474870000000     0.011960000000    -0.563995   
O37      O      0.070640000000     0.550130000000     0.000570000000    -0.557364   
O38      O      0.940640000000     0.539290000000     0.991930000000    -0.555754   
O39      O      0.001750000000     0.549750000000     0.061160000000    -0.561894   
O40      O      0.009780000000     0.540540000000     0.933000000000    -0.566052   
O41      O      0.492690000000     0.455810000000     0.987590000000    -0.559434   
O42      O      0.511920000000     0.583930000000     0.986090000000    -0.564155   
O43      O      0.566860000000     0.512060000000     0.981050000000    -0.558132   
O44      O      0.438150000000     0.529900000000     0.992950000000    -0.55939    
O45      O      0.444770000000     0.523900000000     0.068410000000    -0.564052   
O46      O      0.573840000000     0.514210000000     0.056740000000    -0.564045   
O47      O      0.513490000000     0.584460000000     0.062100000000    -0.558245   
O48      O      0.504990000000     0.454830000000     0.062580000000    -0.561639   
V1       V      0.002620000000     0.000550000000     0.482510000000     1.37886    
V2       V      0.002330000000     0.992350000000     0.563840000000     1.38356    
V3       V      0.983200000000     0.492180000000     0.495410000000     1.39671    
V4       V      0.065860000000     0.491470000000     0.498980000000     1.38198    
V5       V      0.511980000000     0.995150000000     0.493960000000     1.38146    
V6       V      0.504540000000     0.076760000000     0.498380000000     1.38314    
V7       V      0.485020000000     0.016190000000     0.002200000000     1.38973    
V8       V      0.567420000000     0.020860000000     0.996430000000     1.39007    
V9       V      0.011820000000     0.466220000000     0.003320000000     1.39025    
V10      V      0.005400000000     0.548000000000     0.996580000000     1.39033    
V11      V      0.502090000000     0.520180000000     0.983840000000     1.38905    
V12      V      0.509570000000     0.519400000000     0.065510000000     1.39238    


