data_structure

_audit_creation_method RASPA-1.0
_audit_creation_date 2023-5-25
_audit_author_name 'Poobodin Mano'

_cell_length_a    29.0829
_cell_length_b    28.3791
_cell_length_c    28.4766
_cell_angle_alpha 90
_cell_angle_beta  90
_cell_angle_gamma 90
_cell_volume      23503.1

_symmetry_cell_setting          triclinic
_symmetry_space_group_name_Hall 'P 1'
_symmetry_space_group_name_H-M  'P 1'
_symmetry_Int_Tables_number     1

_symmetry_equiv_pos_as_xyz 'x,y,z'

loop_
_atom_site_label
_atom_site_type_symbol
_atom_site_fract_x
_atom_site_fract_y
_atom_site_fract_z
_atom_site_charge
Br1      Br     0.675140000000     0.550860000000     0.927610000000    -0.253209   
Br2      Br     0.323340000000     0.622100000000     0.014450000000    -0.268433   
Br3      Br     0.560290000000     0.864210000000     0.031090000000    -0.256682   
Br4      Br     0.518810000000     0.235950000000     0.081110000000    -0.258952   
Br5      Br     0.614340000000     0.984260000000     0.695760000000    -0.247604   
Br6      Br     0.393610000000     0.117920000000     0.208360000000    -0.249064   
Br7      Br     0.122600000000     0.440990000000     0.707890000000    -0.25547    
Br8      Br     0.928720000000     0.561000000000     0.198850000000    -0.262636   
Br9      Br     0.199020000000     0.891430000000     0.536730000000    -0.261563   
Br10     Br     0.691540000000     0.908300000000     0.571490000000    -0.23729    
Br11     Br     0.997800000000     0.675920000000     0.456720000000    -0.262269   
Br12     Br     0.023400000000     0.200090000000     0.581460000000    -0.254658   
C1       C      0.040460000000     0.087790000000     0.521810000000     0.480831   
C2       C      0.001230000000     0.916660000000     0.553310000000     0.477582   
C3       C      0.936080000000     0.019650000000     0.528170000000     0.47843    
C4       C      0.105960000000     0.984780000000     0.546440000000     0.48349    
C5       C      0.072120000000     0.414250000000     0.494020000000     0.47723    
C6       C      0.033020000000     0.584230000000     0.531210000000     0.484947   
C7       C      0.052100000000     0.517550000000     0.425870000000     0.480511   
C8       C      0.052320000000     0.480850000000     0.600060000000     0.481494   
C9       C      0.519230000000     0.990610000000     0.616610000000     0.486166   
C10      C      0.523030000000     0.016920000000     0.440730000000     0.475826   
C11      C      0.607330000000     0.997240000000     0.532750000000     0.486873   
C12      C      0.433910000000     0.010280000000     0.525340000000     0.476851   
C13      C      0.490590000000     0.136580000000     0.009580000000     0.485971   
C14      C      0.483630000000     0.962650000000     0.049020000000     0.482585   
C15      C      0.476720000000     0.070260000000     0.115090000000     0.484497   
C16      C      0.497060000000     0.028510000000     0.943360000000     0.477466   
C17      C      0.989680000000     0.544320000000     0.923240000000     0.47662    
C18      C      0.007960000000     0.561570000000     0.099390000000     0.483991   
C19      C      0.914020000000     0.571470000000     0.019720000000     0.478082   
C20      C      0.083900000000     0.534550000000     0.003400000000     0.475172   
C21      C      0.514040000000     0.468190000000     0.988580000000     0.480246   
C22      C      0.485620000000     0.634720000000     0.044850000000     0.480708   
C23      C      0.586140000000     0.565750000000     0.015150000000     0.481282   
C24      C      0.413830000000     0.537750000000     0.017850000000     0.48304    
C25      C      0.848640000000     0.626940000000     0.011320000000     0.0166447  
C26      C      0.662120000000     0.546360000000     0.048480000000     0.0246899  
C27      C      0.655360000000     0.596510000000     0.974500000000     0.137589   
C28      C      0.701140000000     0.577730000000     0.065500000000    -0.111133   
C29      C      0.802260000000     0.619910000000     0.986110000000    -0.10336    
C30      C      0.696730000000     0.626390000000     0.991130000000    -0.136408   
C31      C      0.771580000000     0.587480000000     0.014530000000     0.0237151  
C32      C      0.726660000000     0.597650000000     0.023850000000     0.0415683  
C33      C      0.838860000000     0.549350000000     0.053470000000     0.0169853  
C34      C      0.793390000000     0.540970000000     0.028270000000    -0.102255   
C35      C      0.160270000000     0.558130000000     0.973630000000     0.01929    
C36      C      0.343610000000     0.510200000000     0.058830000000     0.023619   
C37      C      0.339090000000     0.561980000000     0.985740000000     0.139191   
C38      C      0.299230000000     0.484620000000     0.043630000000    -0.110831   
C39      C      0.201490000000     0.569720000000     0.004380000000    -0.104614   
C40      C      0.295910000000     0.535610000000     0.970560000000    -0.137197   
C41      C      0.224820000000     0.524570000000     0.019910000000     0.0197552  
C42      C      0.270510000000     0.516390000000     0.012640000000     0.0428954  
C43      C      0.150100000000     0.480400000000     0.015190000000     0.0154348  
C44      C      0.193530000000     0.489880000000     0.044960000000    -0.102954   
C45      C      0.489220000000     0.695260000000     0.107070000000     0.0190454  
C46      C      0.442880000000     0.887130000000     0.040060000000     0.0245844  
C47      C      0.521530000000     0.891020000000     0.080040000000     0.13763    
C48      C      0.427950000000     0.850130000000     0.075610000000    -0.110581   
C49      C      0.509620000000     0.745090000000     0.104290000000    -0.105075   
C50      C      0.505870000000     0.852280000000     0.114590000000    -0.135489   
C51      C      0.477510000000     0.777300000000     0.077360000000     0.0266952  
C52      C      0.469310000000     0.822380000000     0.091420000000     0.0386669  
C53      C      0.443740000000     0.709150000000     0.033000000000     0.0173351  
C54      C      0.462020000000     0.759360000000     0.029680000000    -0.102952   
C55      C      0.553920000000     0.392990000000     0.001770000000     0.0220065  
C56      C      0.452810000000     0.210200000000     0.982940000000     0.0236676  
C57      C      0.533070000000     0.210730000000     0.019230000000     0.138483   
C58      C      0.467090000000     0.250350000000     0.949480000000    -0.110729   
C59      C      0.527040000000     0.350370000000     0.018570000000    -0.105087   
C60      C      0.546910000000     0.249760000000     0.985310000000    -0.137147   
C61      C      0.503800000000     0.326320000000     0.977240000000     0.0206213  
C62      C      0.505580000000     0.278700000000     0.971340000000     0.0423863  
C63      C      0.501530000000     0.402890000000     0.932310000000     0.0165862  
C64      C      0.474520000000     0.358160000000     0.946300000000    -0.103021   
C65      C      0.545180000000     0.027990000000     0.871770000000     0.018794   
C66      C      0.505140000000     0.939790000000     0.685310000000     0.0252494  
C67      C      0.553950000000     0.013630000000     0.691750000000     0.136103   
C68      C      0.483270000000     0.950160000000     0.733190000000    -0.110408   
C69      C      0.559730000000     0.987450000000     0.839730000000    -0.105316   
C70      C      0.535050000000     0.022740000000     0.741050000000    -0.134944   
C71      C      0.519320000000     0.970950000000     0.810650000000     0.0209584  
C72      C      0.515950000000     0.978440000000     0.763510000000     0.0427981  
C73      C      0.463170000000     0.997040000000     0.870230000000     0.0186865  
C74      C      0.478570000000     0.955310000000     0.839680000000    -0.105344   
C75      C      0.503900000000     0.987580000000     0.361330000000     0.0168572  
C76      C      0.506730000000     0.106980000000     0.187650000000     0.0250239  
C77      C      0.430410000000     0.064500000000     0.187480000000     0.139099   
C78      C      0.522760000000     0.079010000000     0.230440000000    -0.108111   
C79      C      0.466730000000     0.009050000000     0.329620000000    -0.102293   
C80      C      0.445650000000     0.034330000000     0.229560000000    -0.136465   
C81      C      0.486110000000     0.052280000000     0.305430000000     0.0171296  
C82      C      0.482570000000     0.059030000000     0.258180000000     0.0433124  
C83      C      0.541270000000     0.067020000000     0.371740000000     0.0169736  
C84      C      0.506340000000     0.089110000000     0.338150000000    -0.101419   
C85      C      0.003030000000     0.576220000000     0.843510000000     0.0168202  
C86      C      0.013850000000     0.447580000000     0.670510000000     0.0240076  
C87      C      0.088600000000     0.491930000000     0.677810000000     0.138456   
C88      C      0.991800000000     0.478260000000     0.708520000000    -0.108082   
C89      C      0.038400000000     0.554480000000     0.810090000000    -0.101071   
C90      C      0.067510000000     0.524890000000     0.714700000000    -0.136442   
C91      C      0.018130000000     0.511500000000     0.785900000000     0.0161272  
C92      C      0.027550000000     0.501510000000     0.739990000000     0.0431106  
C93      C      0.963520000000     0.498480000000     0.853780000000     0.0168849  
C94      C      0.996070000000     0.475320000000     0.818370000000    -0.10041    
C95      C      0.013540000000     0.507380000000     0.349460000000     0.0222326  
C96      C      0.033350000000     0.607460000000     0.168800000000     0.0236357  
C97      C      0.986010000000     0.532600000000     0.177660000000     0.138727   
C98      C      0.062800000000     0.593350000000     0.211580000000    -0.109666   
C99      C      0.993820000000     0.546700000000     0.319460000000    -0.108587   
C100     C      0.015630000000     0.518060000000     0.219330000000    -0.135867   
C101     C      0.032230000000     0.567760000000     0.290680000000     0.0257083  
C102     C      0.035860000000     0.560810000000     0.243460000000     0.0413623  
C103     C      0.089330000000     0.551020000000     0.354470000000     0.0187758  
C104     C      0.070770000000     0.588630000000     0.319970000000    -0.107162   
C105     C      0.360900000000     0.978790000000     0.494130000000     0.0193499  
C106     C      0.177340000000     0.994070000000     0.592790000000     0.0236989  
C107     C      0.178720000000     0.952720000000     0.514060000000     0.137947   
C108     C      0.217630000000     0.025700000000     0.578140000000    -0.109624   
C109     C      0.321420000000     0.959820000000     0.523640000000    -0.103575   
C110     C      0.220150000000     0.982480000000     0.499260000000    -0.134414   
C111     C      0.293380000000     0.000250000000     0.543430000000     0.0184675  
C112     C      0.246550000000     0.000730000000     0.541560000000     0.0408703  
C113     C      0.361770000000     0.054180000000     0.540760000000     0.0167123  
C114     C      0.320830000000     0.036920000000     0.570400000000    -0.102853   
C115     C      0.865440000000     0.012340000000     0.480260000000     0.0166858  
C116     C      0.678890000000     0.027480000000     0.567960000000     0.0237925  
C117     C      0.678890000000     0.951970000000     0.520310000000     0.138883   
C118     C      0.723030000000     0.043470000000     0.544090000000    -0.10916    
C119     C      0.827070000000     0.977690000000     0.493280000000    -0.102239   
C120     C      0.723880000000     0.967160000000     0.496200000000    -0.137255   
C121     C      0.797000000000     0.999800000000     0.530750000000     0.0190032  
C122     C      0.750380000000     0.001510000000     0.526750000000     0.0436581  
C123     C      0.862150000000     0.049760000000     0.560150000000     0.0170698  
C124     C      0.822400000000     0.017360000000     0.574020000000    -0.10205    
C125     C      0.962870000000     0.843400000000     0.527260000000     0.0197824  
C126     C      0.057790000000     0.660920000000     0.562350000000     0.0249738  
C127     C      0.981640000000     0.651990000000     0.518600000000     0.136958   
C128     C      0.035710000000     0.696890000000     0.595500000000    -0.111751   
C129     C      0.984390000000     0.794840000000     0.519440000000    -0.104118   
C130     C      0.961560000000     0.691740000000     0.548870000000    -0.135271   
C131     C      0.998110000000     0.771110000000     0.565280000000     0.0207572  
C132     C      0.998770000000     0.723160000000     0.568960000000     0.0409156  
C133     C      0.997820000000     0.848800000000     0.607610000000     0.0200847  
C134     C      0.023180000000     0.801990000000     0.600550000000    -0.104675   
C135     C      0.126740000000     0.347640000000     0.496930000000     0.0195042  
C136     C      0.038610000000     0.156740000000     0.468950000000     0.02384    
C137     C      0.071580000000     0.162780000000     0.551860000000     0.139019   
C138     C      0.076280000000     0.189910000000     0.451480000000    -0.109494   
C139     C      0.117730000000     0.300340000000     0.521210000000    -0.104485   
C140     C      0.110220000000     0.194820000000     0.533280000000    -0.136768   
C141     C      0.087620000000     0.269130000000     0.490770000000     0.0242444  
C142     C      0.092840000000     0.221380000000     0.490830000000     0.0399494  
C143     C      0.053140000000     0.340930000000     0.451310000000     0.0193323  
C144     C      0.044160000000     0.291800000000     0.471440000000    -0.103574   
H1       H      0.786790000000     0.655380000000     0.981450000000     0.0486781  
H2       H      0.677150000000     0.514640000000     0.031450000000     0.0393134  
H3       H      0.831420000000     0.565920000000     0.088050000000     0.0364186  
H4       H      0.771160000000     0.517950000000     0.049970000000     0.0495823  
H5       H      0.723390000000     0.558690000000     0.090790000000     0.0495737  
H6       H      0.715370000000     0.639340000000     0.959680000000     0.0696714  
H7       H      0.872140000000     0.646580000000     0.987510000000     0.0363272  
H8       H      0.642530000000     0.533910000000     0.079590000000     0.0360153  
H9       H      0.800370000000     0.520820000000     0.995560000000     0.0624744  
H10      H      0.683840000000     0.657780000000     0.010410000000     0.060743   
H11      H      0.855470000000     0.514800000000     0.060590000000     0.0410745  
H12      H      0.808120000000     0.604230000000     0.950850000000     0.0598431  
H13      H      0.686070000000     0.607560000000     0.085620000000     0.0562453  
H14      H      0.630790000000     0.620630000000     0.956670000000     0.0254762  
H15      H      0.842860000000     0.649010000000     0.043060000000     0.0335583  
H16      H      0.224230000000     0.595030000000     0.986120000000     0.0625046  
H17      H      0.334610000000     0.537170000000     0.085620000000     0.0425765  
H18      H      0.160110000000     0.458740000000     0.984280000000     0.0303342  
H19      H      0.210490000000     0.455390000000     0.051140000000     0.0449873  
H20      H      0.280780000000     0.474190000000     0.076140000000     0.0483235  
H21      H      0.274830000000     0.557730000000     0.946830000000     0.0653044  
H22      H      0.142720000000     0.591370000000     0.963410000000     0.0359546  
H23      H      0.366690000000     0.484150000000     0.076050000000     0.034037   
H24      H      0.183390000000     0.504840000000     0.079510000000     0.052108   
H25      H      0.306670000000     0.505080000000     0.948680000000     0.0601133  
H26      H      0.125410000000     0.459500000000     0.036530000000     0.0347499  
H27      H      0.189080000000     0.588440000000     0.036260000000     0.0619719  
H28      H      0.308190000000     0.452100000000     0.023890000000     0.0522648  
H29      H      0.358500000000     0.570660000000     0.953250000000     0.0250993  
H30      H      0.172920000000     0.541250000000     0.940810000000     0.0273383  
H31      H      0.514780000000     0.757480000000     0.140940000000     0.0471557  
H32      H      0.453890000000     0.869070000000     0.007280000000     0.037667   
H33      H      0.410010000000     0.710200000000     0.051400000000     0.038887   
H34      H      0.435650000000     0.781580000000     0.012480000000     0.050555   
H35      H      0.399950000000     0.827700000000     0.061420000000     0.0489133  
H36      H      0.536390000000     0.831970000000     0.126260000000     0.0661682  
H37      H      0.515110000000     0.671410000000     0.123270000000     0.0343634  
H38      H      0.412500000000     0.909020000000     0.030920000000     0.035538   
H39      H      0.492380000000     0.759490000000     0.005960000000     0.0672649  
H40      H      0.490960000000     0.869190000000     0.146350000000     0.0562065  
H41      H      0.437330000000     0.695420000000     0.997020000000     0.0446799  
H42      H      0.543540000000     0.743970000000     0.086340000000     0.0623196  
H43      H      0.413060000000     0.868440000000     0.106610000000     0.0543164  
H44      H      0.543360000000     0.916250000000     0.099960000000     0.0221277  
H45      H      0.458460000000     0.696050000000     0.130280000000     0.0317539  
H46      H      0.550070000000     0.327570000000     0.039460000000     0.0641896  
H47      H      0.433560000000     0.225640000000     0.012970000000     0.0453288  
H48      H      0.528590000000     0.392790000000     0.906620000000     0.0325554  
H49      H      0.464110000000     0.340220000000     0.913300000000     0.0452568  
H50      H      0.436040000000     0.271970000000     0.942420000000     0.0481141  
H51      H      0.576120000000     0.270420000000     0.999430000000     0.0647699  
H52      H      0.569300000000     0.411570000000     0.032380000000     0.0357459  
H53      H      0.428800000000     0.186420000000     0.963900000000     0.0342181  
H54      H      0.442950000000     0.368310000000     0.965830000000     0.0529754  
H55      H      0.560630000000     0.232940000000     0.952940000000     0.059814   
H56      H      0.477730000000     0.428160000000     0.914940000000     0.0347541  
H57      H      0.499800000000     0.362430000000     0.043180000000     0.0670837  
H58      H      0.479100000000     0.235260000000     0.915620000000     0.0517915  
H59      H      0.563770000000     0.187930000000     0.024120000000     0.025479   
H60      H      0.582670000000     0.380520000000     0.979170000000     0.0298168  
H61      H      0.590080000000     0.997320000000     0.818260000000     0.0598105  
H62      H      0.533860000000     0.914370000000     0.690170000000     0.0493417  
H63      H      0.449060000000     0.025110000000     0.847060000000     0.0280784  
H64      H      0.448760000000     0.943510000000     0.818410000000     0.0457285  
H65      H      0.475030000000     0.915620000000     0.749560000000     0.049929   
H66      H      0.561710000000     0.040720000000     0.762270000000     0.0668942  
H67      H      0.574010000000     0.036570000000     0.895910000000     0.0384271  
H68      H      0.478920000000     0.922680000000     0.662510000000     0.0340218  
H69      H      0.488940000000     0.925450000000     0.862630000000     0.0580406  
H70      H      0.506210000000     0.048280000000     0.738050000000     0.0585864  
H71      H      0.434910000000     0.984800000000     0.893550000000     0.0350375  
H72      H      0.571200000000     0.957610000000     0.862170000000     0.0636345  
H73      H      0.450800000000     0.970250000000     0.728320000000     0.0520486  
H74      H      0.559560000000     0.048390000000     0.674650000000     0.0234245  
H75      H      0.538940000000     0.059650000000     0.849670000000     0.025768   
H76      H      0.455910000000     0.981300000000     0.304460000000     0.0448212  
H77      H      0.492100000000     0.140890000000     0.200200000000     0.0512392  
H78      H      0.572400000000     0.057520000000     0.351110000000     0.0261635  
H79      H      0.522080000000     0.119520000000     0.319880000000     0.0489226  
H80      H      0.545990000000     0.101640000000     0.251380000000     0.0493001  
H81      H      0.414720000000     0.026720000000     0.251240000000     0.0678431  
H82      H      0.488670000000     0.957230000000     0.380500000000     0.0353453  
H83      H      0.536930000000     0.115890000000     0.165400000000     0.0425937  
H84      H      0.477700000000     0.103920000000     0.359380000000     0.058569   
H85      H      0.459560000000     0.000250000000     0.216530000000     0.0566012  
H86      H      0.551840000000     0.093560000000     0.398340000000     0.0350401  
H87      H      0.436390000000     0.019290000000     0.351050000000     0.0545447  
H88      H      0.543920000000     0.048870000000     0.218000000000     0.0554176  
H89      H      0.407640000000     0.042400000000     0.165120000000     0.0225555  
H90      H      0.532230000000     0.973910000000     0.338860000000     0.0285876  
H91      H      0.048040000000     0.582410000000     0.784580000000     0.0443694  
H92      H      0.027330000000     0.415160000000     0.687500000000     0.0464244  
H93      H      0.932340000000     0.510370000000     0.834500000000     0.0283643  
H94      H      0.977250000000     0.446950000000     0.800000000000     0.0482768  
H95      H      0.966330000000     0.456590000000     0.727580000000     0.0490881  
H96      H      0.095380000000     0.535020000000     0.739440000000     0.0676638  
H97      H      0.019390000000     0.606240000000     0.862200000000     0.0357037  
H98      H      0.986930000000     0.436150000000     0.645260000000     0.0377164  
H99      H      0.024140000000     0.457670000000     0.838180000000     0.0595897  
H100     H      0.054910000000     0.557430000000     0.697160000000     0.056793   
H101     H      0.952340000000     0.471860000000     0.880030000000     0.0367994  
H102     H      0.069630000000     0.543970000000     0.830010000000     0.0553463  
H103     H      0.972000000000     0.506780000000     0.690980000000     0.0546227  
H104     H      0.114310000000     0.512730000000     0.657700000000     0.0248508  
H105     H      0.973970000000     0.590430000000     0.822380000000     0.0285019  
H106     H      0.964260000000     0.534120000000     0.298350000000     0.0651721  
H107     H      0.006400000000     0.632610000000     0.180590000000     0.0454551  
H108     H      0.109710000000     0.524890000000     0.334130000000     0.0280431  
H109     H      0.100010000000     0.601470000000     0.298480000000     0.0478994  
H110     H      0.073050000000     0.626370000000     0.229710000000     0.049826   
H111     H      0.996060000000     0.494080000000     0.242620000000     0.0642368  
H112     H      0.985280000000     0.491390000000     0.370320000000     0.0377562  
H113     H      0.055700000000     0.626350000000     0.143310000000     0.0341567  
H114     H      0.057120000000     0.619030000000     0.340270000000     0.0653758  
H115     H      0.044740000000     0.496530000000     0.205880000000     0.0587969  
H116     H      0.112960000000     0.568400000000     0.379810000000     0.038878   
H117     H      0.979700000000     0.574440000000     0.343000000000     0.0700902  
H118     H      0.094450000000     0.575040000000     0.199520000000     0.0516947  
H119     H      0.976000000000     0.499900000000     0.158760000000     0.0242056  
H120     H      0.027260000000     0.479310000000     0.326050000000     0.0246238  
H121     H      0.301500000000     0.933910000000     0.502950000000     0.0590819  
H122     H      0.191160000000     0.963380000000     0.612540000000     0.04448    
H123     H      0.348350000000     0.075960000000     0.511310000000     0.0287923  
H124     H      0.299880000000     0.068430000000     0.579180000000     0.0442046  
H125     H      0.237470000000     0.033740000000     0.610490000000     0.0474429  
H126     H      0.241150000000     0.962900000000     0.473380000000     0.0653897  
H127     H      0.382390000000     0.948880000000     0.481720000000     0.0358322  
H128     H      0.155130000000     0.014320000000     0.617320000000     0.036239   
H129     H      0.333580000000     0.021090000000     0.603640000000     0.052069   
H130     H      0.207050000000     0.013710000000     0.479850000000     0.0589146  
H131     H      0.383930000000     0.077020000000     0.563010000000     0.0340751  
H132     H      0.336050000000     0.939740000000     0.553650000000     0.0618288  
H133     H      0.204370000000     0.059300000000     0.563320000000     0.0512481  
H134     H      0.157680000000     0.945590000000     0.482270000000     0.025578   
H135     H      0.346210000000     0.996180000000     0.462490000000     0.0263511  
H136     H      0.807920000000     0.969650000000     0.460520000000     0.0457696  
H137     H      0.688110000000     0.010330000000     0.601780000000     0.0553145  
H138     H      0.847380000000     0.083150000000     0.546320000000     0.0295605  
H139     H      0.800240000000     0.035090000000     0.600220000000     0.0512507  
H140     H      0.742120000000     0.067080000000     0.568090000000     0.0495412  
H141     H      0.744020000000     0.934760000000     0.488650000000     0.0689108  
H142     H      0.888310000000     0.995220000000     0.454070000000     0.0367804  
H143     H      0.657940000000     0.059020000000     0.576780000000     0.0404857  
H144     H      0.836960000000     0.986130000000     0.592310000000     0.061196   
H145     H      0.715790000000     0.984490000000     0.462170000000     0.0576376  
H146     H      0.882670000000     0.058650000000     0.591860000000     0.0403124  
H147     H      0.842200000000     0.944420000000     0.506910000000     0.0563645  
H148     H      0.713770000000     0.065330000000     0.513100000000     0.0545077  
H149     H      0.658020000000     0.932370000000     0.494020000000     0.0229474  
H150     H      0.849710000000     0.043720000000     0.463200000000     0.0284468  
H151     H      0.960320000000     0.773800000000     0.497880000000     0.0615532  
H152     H      0.077040000000     0.680000000000     0.534450000000     0.0450739  
H153     H      0.964380000000     0.841710000000     0.625240000000     0.030056   
H154     H      0.025150000000     0.784600000000     0.635480000000     0.0464962  
H155     H      0.063560000000     0.720130000000     0.608640000000     0.0495433  
H156     H      0.934390000000     0.710910000000     0.529430000000     0.0673564  
H157     H      0.959610000000     0.861860000000     0.492980000000     0.0365378  
H158     H      0.083130000000     0.639910000000     0.582840000000     0.0329535  
H159     H      0.058690000000     0.808880000000     0.587820000000     0.0607139  
H160     H      0.943470000000     0.675210000000     0.579060000000     0.0593141  
H161     H      0.018750000000     0.871630000000     0.631090000000     0.0365518  
H162     H      0.016070000000     0.799370000000     0.498080000000     0.0682028  
H163     H      0.020200000000     0.678480000000     0.626100000000     0.0518166  
H164     H      0.954120000000     0.625410000000     0.512840000000     0.0248051  
H165     H      0.927460000000     0.838090000000     0.541080000000     0.0281247  
H166     H      0.151740000000     0.283660000000     0.527670000000     0.0480616  
H167     H      0.006850000000     0.177760000000     0.474760000000     0.0386469  
H168     H      0.070970000000     0.336610000000     0.417020000000     0.0252693  
H169     H      0.026860000000     0.270480000000     0.444090000000     0.0482212  
H170     H      0.064640000000     0.209570000000     0.420000000000     0.0466033  
H171     H      0.121960000000     0.217970000000     0.562300000000     0.0671126  
H172     H      0.146300000000     0.370720000000     0.521390000000     0.0381669  
H173     H      0.030700000000     0.130690000000     0.440950000000     0.0340994  
H174     H      0.019320000000     0.295200000000     0.500910000000     0.0682012  
H175     H      0.140040000000     0.172720000000     0.522690000000     0.0566613  
H176     H      0.019750000000     0.358630000000     0.444130000000     0.0343996  
H177     H      0.100480000000     0.306410000000     0.555530000000     0.0657522  
H178     H      0.105840000000     0.168140000000     0.439540000000     0.0533149  
H179     H      0.086650000000     0.140170000000     0.579840000000     0.0213687  
H180     H      0.148290000000     0.341430000000     0.465250000000     0.028919   
N1       N      0.632900000000     0.571410000000     0.013980000000    -0.193431   
N2       N      0.868420000000     0.581390000000     0.026020000000    -0.185457   
N3       N      0.366900000000     0.533860000000     0.019090000000    -0.194382   
N4       N      0.129690000000     0.524930000000     0.998340000000    -0.187604   
N5       N      0.481840000000     0.915390000000     0.058170000000    -0.194432   
N6       N      0.475330000000     0.679020000000     0.060080000000    -0.186242   
N7       N      0.492960000000     0.184030000000     0.001450000000    -0.194113   
N8       N      0.523580000000     0.423590000000     0.973980000000    -0.187526   
N9       N      0.523040000000     0.983260000000     0.663810000000    -0.194095   
N10      N      0.502310000000     0.016490000000     0.897200000000    -0.187235   
N11      N      0.471130000000     0.080950000000     0.161470000000    -0.192694   
N12      N      0.522450000000     0.023850000000     0.393250000000    -0.187889   
N13      N      0.052010000000     0.472780000000     0.647430000000    -0.193724   
N14      N      0.985530000000     0.539770000000     0.875630000000    -0.187472   
N15      N      0.010870000000     0.566110000000     0.147090000000    -0.194611   
N16      N      0.051450000000     0.525990000000     0.378610000000    -0.187064   
N17      N      0.152170000000     0.977110000000     0.551010000000    -0.194159   
N18      N      0.387290000000     0.013860000000     0.521220000000    -0.1886     
N19      N      0.653770000000     0.993310000000     0.538400000000    -0.192807   
N20      N      0.889990000000     0.027470000000     0.523040000000    -0.187342   
N21      N      0.022830000000     0.630360000000     0.540180000000    -0.194763   
N22      N      0.989220000000     0.870950000000     0.561830000000    -0.187127   
N23      N      0.051630000000     0.133840000000     0.513680000000    -0.194339   
N24      N      0.082850000000     0.368860000000     0.482600000000    -0.187462   
O1       O      0.037020000000     0.058810000000     0.487260000000    -0.556728   
O2       O      0.007700000000     0.930410000000     0.510870000000    -0.554159   
O3       O      0.959820000000     0.007560000000     0.492220000000    -0.562388   
O4       O      0.086600000000     0.980350000000     0.506080000000    -0.55673    
O5       O      0.082430000000     0.997190000000     0.582480000000    -0.558702   
O6       O      0.955130000000     0.023600000000     0.568770000000    -0.55233    
O7       O      0.005310000000     0.945590000000     0.587780000000    -0.555661   
O8       O      0.033730000000     0.073900000000     0.564130000000    -0.550015   
O9       O      0.029790000000     0.426850000000     0.496140000000    -0.555907   
O10      O      0.000480000000     0.554380000000     0.524090000000    -0.553167   
O11      O      0.015020000000     0.504030000000     0.446120000000    -0.560857   
O12      O      0.015220000000     0.475760000000     0.576070000000    -0.558062   
O13      O      0.089610000000     0.494500000000     0.580140000000    -0.554122   
O14      O      0.089550000000     0.522310000000     0.449480000000    -0.550868   
O15      O      0.075270000000     0.571380000000     0.529200000000    -0.556611   
O16      O      0.104510000000     0.444010000000     0.501970000000    -0.554807   
O17      O      0.514990000000     0.955240000000     0.588710000000    -0.550484   
O18      O      0.519750000000     0.974880000000     0.456950000000    -0.560494   
O19      O      0.583060000000     0.960270000000     0.524540000000    -0.547258   
O20      O      0.453100000000     0.969970000000     0.519850000000    -0.561743   
O21      O      0.458180000000     0.047250000000     0.533560000000    -0.557129   
O22      O      0.588230000000     0.037710000000     0.537320000000    -0.560032   
O23      O      0.525980000000     0.052380000000     0.468690000000    -0.55613    
O24      O      0.522410000000     0.032680000000     0.600480000000    -0.558954   
O25      O      0.451550000000     0.115260000000     0.009130000000    -0.550958   
O26      O      0.446570000000     0.984710000000     0.038300000000    -0.560714   
O27      O      0.441210000000     0.064130000000     0.088920000000    -0.549129   
O28      O      0.456460000000     0.034230000000     0.960010000000    -0.559754   
O29      O      0.532620000000     0.033850000000     0.969670000000    -0.553092   
O30      O      0.517420000000     0.065950000000     0.098260000000    -0.556856   
O31      O      0.522400000000     0.984370000000     0.050250000000    -0.549949   
O32      O      0.527610000000     0.114010000000     0.019210000000    -0.560898   
O33      O      0.983930000000     0.508290000000     0.949970000000    -0.556112   
O34      O      0.997720000000     0.521330000000     0.081730000000    -0.560051   
O35      O      0.927860000000     0.528600000000     0.022410000000    -0.555493   
O36      O      0.055210000000     0.500910000000     0.010870000000    -0.555266   
O37      O      0.069940000000     0.577330000000     0.000120000000    -0.558942   
O38      O      0.942750000000     0.605060000000     0.012160000000    -0.552546   
O39      O      0.014270000000     0.597580000000     0.072740000000    -0.552713   
O40      O      0.999790000000     0.584660000000     0.940800000000    -0.559063   
O41      O      0.506510000000     0.500820000000     0.958260000000    -0.551854   
O42      O      0.486450000000     0.626090000000     0.000600000000    -0.554744   
O43      O      0.561850000000     0.575010000000     0.978530000000    -0.546163   
O44      O      0.433150000000     0.553420000000     0.980510000000    -0.558843   
O45      O      0.438020000000     0.527810000000     0.054410000000    -0.551487   
O46      O      0.566990000000     0.550030000000     0.052630000000    -0.559081   
O47      O      0.492990000000     0.601860000000     0.074930000000    -0.556902   
O48      O      0.513840000000     0.477140000000     0.032710000000    -0.561235   
V1       V      0.023180000000     0.993710000000     0.496060000000     1.39959    
V2       V      0.018780000000     0.010620000000     0.578860000000     1.40227    
V3       V      0.012130000000     0.489610000000     0.510690000000     1.40327    
V4       V      0.092760000000     0.508660000000     0.515190000000     1.39749    
V5       V      0.517610000000     0.961970000000     0.522150000000     1.40806    
V6       V      0.523710000000     0.045660000000     0.535310000000     1.39766    
V7       V      0.445880000000     0.049810000000     0.023760000000     1.39783    
V8       V      0.528050000000     0.049350000000     0.034650000000     1.40974    
V9       V      0.990680000000     0.511700000000     0.016440000000     1.39954    
V10      V      0.007210000000     0.594250000000     0.006200000000     1.39396    
V11      V      0.497010000000     0.564740000000     0.976460000000     1.40653    
V12      V      0.502990000000     0.538270000000     0.056660000000     1.3985     


