data_structure

_audit_creation_method RASPA-1.0
_audit_creation_date 2023-5-25
_audit_author_name 'Poobodin Mano'

_cell_length_a    28.7351
_cell_length_b    28.9139
_cell_length_c    29.1111
_cell_angle_alpha 90
_cell_angle_beta  89.9998
_cell_angle_gamma 90
_cell_volume      24186.8

_symmetry_cell_setting          triclinic
_symmetry_space_group_name_Hall 'P 1'
_symmetry_space_group_name_H-M  'P 1'
_symmetry_Int_Tables_number     1

_symmetry_equiv_pos_as_xyz 'x,y,z'

loop_
_atom_site_label
_atom_site_type_symbol
_atom_site_fract_x
_atom_site_fract_y
_atom_site_fract_z
_atom_site_charge
C1       C      0.017860000000     0.115170000000     0.549260000000     0.473256   
C2       C      0.964070000000     0.948410000000     0.540310000000     0.474645   
C3       C      0.907180000000     0.057230000000     0.555850000000     0.476268   
C4       C      0.073950000000     0.005280000000     0.532080000000     0.475375   
C5       C      0.013800000000     0.447010000000     0.520980000000     0.475139   
C6       C      0.000940000000     0.620870000000     0.503190000000     0.475165   
C7       C      0.008440000000     0.526110000000     0.425750000000     0.475353   
C8       C      0.006660000000     0.543210000000     0.598940000000     0.473927   
C9       C      0.505970000000     0.012510000000     0.594940000000     0.475261   
C10      C      0.490550000000     0.992500000000     0.422710000000     0.476843   
C11      C      0.586160000000     0.008080000000     0.501940000000     0.47429    
C12      C      0.410610000000     0.998320000000     0.516540000000     0.473937   
C13      C      0.536570000000     0.107520000000     0.015120000000     0.47755    
C14      C      0.517960000000     0.934080000000     0.000440000000     0.474181   
C15      C      0.520160000000     0.013810000000     0.094400000000     0.4739     
C16      C      0.535070000000     0.029460000000     0.921700000000     0.476701   
C17      C      0.051270000000     0.503010000000     0.924860000000     0.475763   
C18      C      0.046530000000     0.498100000000     0.098810000000     0.474375   
C19      C      0.963440000000     0.520590000000     0.010810000000     0.475073   
C20      C      0.134950000000     0.481640000000     0.015540000000     0.477448   
C21      C      0.556130000000     0.437550000000     0.011020000000     0.473978   
C22      C      0.539790000000     0.609580000000     0.983630000000     0.476736   
C23      C      0.634850000000     0.531420000000     0.998090000000     0.476869   
C24      C      0.459640000000     0.514170000000     0.995520000000     0.474353   
C25      C      0.900720000000     0.576680000000     0.996010000000     0.0181466  
C26      C      0.708510000000     0.515670000000     0.038470000000     0.0231217  
C27      C      0.708260000000     0.549710000000     0.957680000000     0.114051   
C28      C      0.748370000000     0.547830000000     0.051610000000    -0.108655   
C29      C      0.853800000000     0.571570000000     0.971460000000    -0.103042   
C30      C      0.747800000000     0.582990000000     0.971790000000    -0.132034   
C31      C      0.820400000000     0.545560000000     0.002130000000     0.0176398  
C32      C      0.776150000000     0.560520000000     0.009440000000     0.0319355  
C33      C      0.885600000000     0.503380000000     0.041230000000     0.0165575  
C34      C      0.837590000000     0.499120000000     0.019240000000    -0.101501   
C35      C      0.388570000000     0.485190000000     0.956300000000     0.0147184  
C36      C      0.210270000000     0.502090000000     0.050090000000     0.0254563  
C37      C      0.202300000000     0.429420000000     0.002270000000     0.112883   
C38      C      0.253340000000     0.516510000000     0.023580000000    -0.109227   
C39      C      0.355030000000     0.447350000000     0.973550000000    -0.101075   
C40      C      0.247900000000     0.441840000000     0.976520000000    -0.131081   
C41      C      0.324530000000     0.467400000000     0.011000000000     0.0135309  
C42      C      0.277970000000     0.474060000000     0.005200000000     0.0334053  
C43      C      0.383200000000     0.526120000000     0.032950000000     0.0163683  
C44      C      0.351480000000     0.487870000000     0.050740000000    -0.100643   
C45      C      0.471750000000     0.865530000000     0.976760000000     0.0156234  
C46      C      0.560110000000     0.687740000000     0.010610000000     0.0238711  
C47      C      0.517870000000     0.676620000000     0.934730000000     0.112541   
C48      C      0.526610000000     0.726180000000     0.023720000000    -0.109007   
C49      C      0.485880000000     0.825270000000     0.944800000000    -0.102325   
C50      C      0.484970000000     0.717330000000     0.947080000000    -0.131304   
C51      C      0.519760000000     0.793960000000     0.969720000000     0.0164295  
C52      C      0.508960000000     0.749500000000     0.980690000000     0.0327418  
C53      C      0.547210000000     0.856620000000     0.020850000000     0.0168973  
C54      C      0.562300000000     0.818280000000     0.988350000000    -0.100931   
C55      C      0.549560000000     0.372120000000     0.064630000000     0.0181325  
C56      C      0.582120000000     0.177370000000     0.996440000000     0.0234917  
C57      C      0.501920000000     0.183250000000     0.033300000000     0.115428   
C58      C      0.598700000000     0.218240000000     0.025420000000    -0.109255   
C59      C      0.524820000000     0.325840000000     0.058690000000    -0.102113   
C60      C      0.519890000000     0.222000000000     0.064840000000    -0.133567   
C61      C      0.554500000000     0.293900000000     0.029900000000     0.015126   
C62      C      0.558030000000     0.248040000000     0.040010000000     0.033674   
C63      C      0.590480000000     0.362380000000     0.988580000000     0.0159041  
C64      C      0.570440000000     0.313430000000     0.984050000000    -0.100423   
C65      C      0.529890000000     0.978550000000     0.668850000000     0.0172789  
C66      C      0.506870000000     0.066460000000     0.850370000000     0.0232135  
C67      C      0.583740000000     0.023860000000     0.852120000000     0.115427   
C68      C      0.496570000000     0.047480000000     0.802340000000    -0.108444   
C69      C      0.566320000000     0.996280000000     0.702860000000    -0.101608   
C70      C      0.572540000000     0.001110000000     0.805800000000    -0.133471   
C71      C      0.544490000000     0.034400000000     0.731170000000     0.013018   
C72      C      0.540310000000     0.031460000000     0.777740000000     0.034507   
C73      C      0.492210000000     0.057730000000     0.666010000000     0.0156227  
C74      C      0.526040000000     0.074580000000     0.703060000000    -0.100527   
C75      C      0.477010000000     0.032290000000     0.165500000000     0.0163004  
C76      C      0.500310000000     0.943710000000     0.353720000000     0.0237586  
C77      C      0.458030000000     0.020340000000     0.348990000000     0.112712   
C78      C      0.527760000000     0.954820000000     0.309910000000    -0.109485   
C79      C      0.459510000000     0.001300000000     0.204330000000    -0.10095    
C80      C      0.483530000000     0.031510000000     0.304010000000    -0.130737   
C81      C      0.499700000000     0.984110000000     0.233350000000     0.0139452  
C82      C      0.500530000000     0.988070000000     0.280000000000     0.0330803  
C83      C      0.555580000000     0.992750000000     0.168830000000     0.0172417  
C84      C      0.537880000000     0.960140000000     0.206600000000    -0.102426   
C85      C      0.965000000000     0.537780000000     0.673230000000     0.016647   
C86      C      0.077780000000     0.539740000000     0.852420000000     0.0231596  
C87      C      0.027820000000     0.467700000000     0.850850000000     0.113372   
C88      C      0.047540000000     0.561910000000     0.815250000000    -0.108303   
C89      C      0.978830000000     0.507070000000     0.714040000000    -0.100785   
C90      C      0.995840000000     0.490000000000     0.814550000000    -0.131749   
C91      C      0.019420000000     0.528190000000     0.740100000000     0.0130913  
C92      C      0.022720000000     0.525440000000     0.786800000000     0.0329643  
C93      C      0.045590000000     0.571250000000     0.669520000000     0.0173078  
C94      C      0.060800000000     0.542260000000     0.710730000000    -0.100458   
C95      C      0.068450000000     0.532120000000     0.173770000000     0.016445   
C96      C      0.969080000000     0.504300000000     0.353430000000     0.0227151  
C97      C      0.045480000000     0.548580000000     0.352530000000     0.112859   
C98      C      0.985720000000     0.474130000000     0.313180000000    -0.109641   
C99      C      0.037150000000     0.547100000000     0.213450000000    -0.100386   
C100     C      0.062290000000     0.518500000000     0.312610000000    -0.131588   
C101     C      0.018240000000     0.505310000000     0.238790000000     0.0144179  
C102     C      0.021440000000     0.500390000000     0.285210000000     0.0335023  
C103     C      0.026370000000     0.455480000000     0.169700000000     0.0167861  
C104     C      0.993710000000     0.470250000000     0.208740000000    -0.102376   
C105     C      0.334920000000     0.036110000000     0.505100000000     0.0176884  
C106     C      0.144420000000     0.964470000000     0.560410000000     0.0230415  
C107     C      0.139710000000     0.993290000000     0.478760000000     0.115583   
C108     C      0.195190000000     0.980740000000     0.563980000000    -0.107492   
C109     C      0.291120000000     0.019200000000     0.480690000000    -0.101811   
C110     C      0.188040000000     0.015290000000     0.482890000000    -0.132816   
C111     C      0.264880000000     0.986790000000     0.512190000000     0.0130245  
C112     C      0.217730000000     0.989420000000     0.517440000000     0.0335215  
C113     C      0.340540000000     0.960940000000     0.549200000000     0.0150728  
C114     C      0.293170000000     0.946040000000     0.529700000000    -0.100206   
C115     C      0.657030000000     0.052140000000     0.480560000000     0.0169815  
C116     C      0.833900000000     0.049860000000     0.599720000000     0.022325   
C117     C      0.836330000000     0.096750000000     0.527010000000     0.11366    
C118     C      0.794990000000     0.018990000000     0.580370000000    -0.107849   
C119     C      0.689610000000     0.073520000000     0.516160000000    -0.0998869  
C120     C      0.797130000000     0.067520000000     0.506140000000    -0.130022   
C121     C      0.721300000000     0.036920000000     0.536830000000     0.0124581  
C122     C      0.767850000000     0.044050000000     0.543010000000     0.0321362  
C123     C      0.663730000000     0.974500000000     0.518690000000     0.0157566  
C124     C      0.696420000000     0.994520000000     0.555510000000    -0.100603   
C125     C      0.928170000000     0.881890000000     0.498600000000     0.0152606  
C126     C      0.035710000000     0.698130000000     0.513360000000     0.0241429  
C127     C      0.958980000000     0.689140000000     0.472050000000     0.111882   
C128     C      0.015890000000     0.736710000000     0.543400000000    -0.109328   
C129     C      0.954150000000     0.837940000000     0.483300000000    -0.0991004  
C130     C      0.939220000000     0.730830000000     0.498540000000    -0.130059   
C131     C      0.970270000000     0.807970000000     0.523460000000     0.0114738  
C132     C      0.977210000000     0.761670000000     0.518070000000     0.0326308  
C133     C      0.958260000000     0.872380000000     0.578570000000     0.0179769  
C134     C      0.990790000000     0.833370000000     0.564250000000    -0.100558   
C135     C      0.057370000000     0.182930000000     0.514390000000     0.0157732  
C136     C      0.978060000000     0.373810000000     0.545650000000     0.0241805  
C137     C      0.053440000000     0.374170000000     0.499970000000     0.111693   
C138     C      0.996430000000     0.334810000000     0.576270000000    -0.110382   
C139     C      0.037910000000     0.231400000000     0.504960000000    -0.099095   
C140     C      0.070390000000     0.332340000000     0.528070000000    -0.130687   
C141     C      0.028410000000     0.258470000000     0.548810000000     0.0122846  
C142     C      0.030230000000     0.305610000000     0.549020000000     0.0330609  
C143     C      0.028270000000     0.185970000000     0.595650000000     0.0171465  
C144     C      0.003800000000     0.232110000000     0.586730000000    -0.10089    
H1       H      0.841180000000     0.606990000000     0.963480000000     0.0408251  
H2       H      0.723380000000     0.481510000000     0.028830000000     0.0249696  
H3       H      0.881460000000     0.520560000000     0.075170000000     0.02259    
H4       H      0.813630000000     0.481950000000     0.043710000000     0.0426085  
H5       H      0.769870000000     0.532510000000     0.079380000000     0.0427237  
H6       H      0.768480000000     0.591990000000     0.940860000000     0.0492171  
H7       H      0.925970000000     0.592690000000     0.971770000000     0.0293391  
H8       H      0.686120000000     0.509960000000     0.069090000000     0.0301642  
H9       H      0.840320000000     0.475630000000     0.989130000000     0.0519102  
H10      H      0.732430000000     0.615630000000     0.985120000000     0.0529583  
H11      H      0.899590000000     0.468140000000     0.047840000000     0.0310254  
H12      H      0.858440000000     0.552350000000     0.938700000000     0.0485176  
H13      H      0.733300000000     0.580070000000     0.066190000000     0.0499024  
H14      H      0.685020000000     0.568800000000     0.933590000000     0.00831241 
H15      H      0.896450000000     0.600500000000     0.025740000000     0.0258036  
H16      H      0.743670000000     0.520150000000     0.903300000000     0.0739013  
H17      H      0.700710000000     0.486410000000     0.925600000000     0.085344   
H18      H      0.335030000000     0.434300000000     0.943650000000     0.0405233  
H19      H      0.221500000000     0.482800000000     0.081240000000     0.0254926  
H20      H      0.361210000000     0.554810000000     0.019640000000     0.0227672  
H21      H      0.329140000000     0.500380000000     0.079220000000     0.041399   
H22      H      0.275140000000     0.539240000000     0.045340000000     0.04331    
H23      H      0.266230000000     0.409120000000     0.968000000000     0.0496642  
H24      H      0.413450000000     0.469210000000     0.931750000000     0.0325265  
H25      H      0.191610000000     0.533520000000     0.062140000000     0.0289759  
H26      H      0.373550000000     0.460230000000     0.065950000000     0.0500371  
H27      H      0.239160000000     0.459440000000     0.943690000000     0.0525979  
H28      H      0.403890000000     0.540110000000     0.062040000000     0.0321748  
H29      H      0.375460000000     0.418020000000     0.987790000000     0.047891   
H30      H      0.242420000000     0.538070000000     0.993840000000     0.0526448  
H31      H      0.178390000000     0.412480000000     0.977250000000     0.00772769 
H32      H      0.368020000000     0.511480000000     0.937130000000     0.0251048  
H33      H      0.224360000000     0.365640000000     0.025710000000     0.0736936  
H34      H      0.181710000000     0.390270000000     0.058000000000     0.0848983  
H35      H      0.453700000000     0.807000000000     0.934040000000     0.0407996  
H36      H      0.591540000000     0.703530000000     0.994750000000     0.0252277  
H37      H      0.530540000000     0.840640000000     0.051460000000     0.0223935  
H38      H      0.587460000000     0.794760000000     0.005370000000     0.0421645  
H39      H      0.543010000000     0.750280000000     0.048560000000     0.0431208  
H40      H      0.474210000000     0.735030000000     0.914940000000     0.049477   
H41      H      0.451080000000     0.890940000000     0.956600000000     0.030686   
H42      H      0.571770000000     0.669720000000     0.042310000000     0.0300536  
H43      H      0.581390000000     0.834090000000     0.959060000000     0.0512395  
H44      H      0.452990000000     0.703380000000     0.963500000000     0.0527111  
H45      H      0.578570000000     0.875430000000     0.033120000000     0.0316701  
H46      H      0.502940000000     0.839350000000     0.913520000000     0.0479653  
H47      H      0.496440000000     0.710630000000     0.041990000000     0.0512908  
H48      H      0.496990000000     0.650420000000     0.915660000000     0.00907769 
H49      H      0.448990000000     0.851640000000     0.004420000000     0.0255452  
H50      H      0.541400000000     0.704640000000     0.873710000000     0.0740356  
H51      H      0.578410000000     0.665790000000     0.898050000000     0.084585   
H52      H      0.519080000000     0.311880000000     0.093800000000     0.0404789  
H53      H      0.572050000000     0.190630000000     0.961990000000     0.025035   
H54      H      0.626160000000     0.359520000000     0.003100000000     0.0227206  
H55      H      0.596240000000     0.291480000000     0.966110000000     0.0420018  
H56      H      0.626450000000     0.237520000000     0.007200000000     0.0425514  
H57      H      0.489800000000     0.243850000000     0.074800000000     0.0494204  
H58      H      0.526140000000     0.395420000000     0.084380000000     0.0315152  
H59      H      0.611650000000     0.153100000000     0.991240000000     0.0289462  
H60      H      0.539500000000     0.315060000000     0.961200000000     0.0510331  
H61      H      0.534320000000     0.206640000000     0.096820000000     0.0535517  
H62      H      0.593900000000     0.377840000000     0.953770000000     0.0313548  
H63      H      0.490520000000     0.331040000000     0.041780000000     0.0488241  
H64      H      0.615320000000     0.204350000000     0.057030000000     0.0496956  
H65      H      0.476670000000     0.162330000000     0.053650000000     0.00834945 
H66      H      0.581700000000     0.366770000000     0.085290000000     0.0247265  
H67      H      0.448300000000     0.221300000000     0.004800000000     0.0739248  
H68      H      0.466930000000     0.176510000000     0.971630000000     0.0858543  
H69      H      0.578080000000     0.966180000000     0.723400000000     0.040289   
H70      H      0.522260000000     0.101540000000     0.846490000000     0.0257475  
H71      H      0.459160000000     0.047540000000     0.683120000000     0.0231055  
H72      H      0.509790000000     0.102270000000     0.723890000000     0.0413687  
H73      H      0.476470000000     0.073820000000     0.783180000000     0.0432231  
H74      H      0.606170000000     0.994990000000     0.787930000000     0.0499822  
H75      H      0.546510000000     0.951540000000     0.647150000000     0.0311121  
H76      H      0.473460000000     0.070750000000     0.869130000000     0.0296321  
H77      H      0.556170000000     0.091120000000     0.685640000000     0.0494562  
H78      H      0.555560000000     0.967060000000     0.811680000000     0.0539075  
H79      H      0.484060000000     0.086840000000     0.642400000000     0.0315292  
H80      H      0.596870000000     0.010140000000     0.683890000000     0.0478284  
H81      H      0.473270000000     0.017010000000     0.805970000000     0.0500813  
H82      H      0.603850000000     0.998150000000     0.872590000000     0.00987123 
H83      H      0.501030000000     0.961930000000     0.688280000000     0.0254597  
H84      H      0.644860000000     0.055250000000     0.831320000000     0.0740571  
H85      H      0.618460000000     0.081310000000     0.876770000000     0.0844373  
H86      H      0.432070000000     0.019360000000     0.224150000000     0.0420709  
H87      H      0.469230000000     0.922810000000     0.344340000000     0.0287484  
H88      H      0.574020000000     0.022300000000     0.185190000000     0.0255344  
H89      H      0.568220000000     0.950810000000     0.228310000000     0.0407581  
H90      H      0.534180000000     0.921450000000     0.292060000000     0.0429467  
H91      H      0.461500000000     0.054120000000     0.282310000000     0.0495886  
H92      H      0.447520000000     0.040390000000     0.142130000000     0.0309903  
H93      H      0.522660000000     0.922210000000     0.376470000000     0.0291835  
H94      H      0.523900000000     0.927960000000     0.190910000000     0.0481224  
H95      H      0.514710000000     0.052600000000     0.312540000000     0.0548684  
H96      H      0.581230000000     0.973590000000     0.147450000000     0.030233   
H97      H      0.442240000000     0.970660000000     0.188790000000     0.0504073  
H98      H      0.561830000000     0.970550000000     0.319030000000     0.0491695  
H99      H      0.453010000000     0.053440000000     0.367920000000     0.0103777  
H100     H      0.488890000000     0.065520000000     0.180750000000     0.0223919  
H101     H      0.391850000000     0.025700000000     0.321630000000     0.0731399  
H102     H      0.395360000000     0.992100000000     0.369470000000     0.0815591  
H103     H      0.947500000000     0.503700000000     0.736180000000     0.0402384  
H104     H      0.108130000000     0.523130000000     0.835400000000     0.0260235  
H105     H      0.034200000000     0.605660000000     0.682400000000     0.0221978  
H106     H      0.088260000000     0.561210000000     0.729540000000     0.0413614  
H107     H      0.068840000000     0.586390000000     0.794980000000     0.0424394  
H108     H      0.981380000000     0.461820000000     0.792890000000     0.0494978  
H109     H      0.937890000000     0.519510000000     0.652880000000     0.0305358  
H110     H      0.091660000000     0.567290000000     0.875250000000     0.0300218  
H111     H      0.077460000000     0.510120000000     0.697740000000     0.0516921  
H112     H      0.966210000000     0.507480000000     0.831930000000     0.0531581  
H113     H      0.076000000000     0.577120000000     0.646650000000     0.030804   
H114     H      0.988820000000     0.472130000000     0.701510000000     0.0478564  
H115     H      0.020520000000     0.583340000000     0.832400000000     0.0501366  
H116     H      0.005430000000     0.445510000000     0.872990000000     0.0105763  
H117     H      0.949500000000     0.570330000000     0.686700000000     0.024589   
H118     H      0.046040000000     0.410950000000     0.811580000000     0.0740244  
H119     H      0.085180000000     0.424770000000     0.853230000000     0.0834973  
H120     H      0.055820000000     0.572110000000     0.235590000000     0.0429482  
H121     H      0.947420000000     0.533000000000     0.339590000000     0.0283063  
H122     H      0.055650000000     0.435210000000     0.184550000000     0.0249212  
H123     H      0.983920000000     0.438410000000     0.227720000000     0.0404646  
H124     H      0.954420000000     0.464830000000     0.292830000000     0.0427305  
H125     H      0.088680000000     0.537090000000     0.291880000000     0.0496598  
H126     H      0.078330000000     0.563090000000     0.153350000000     0.0311897  
H127     H      0.946510000000     0.482840000000     0.376000000000     0.0288969  
H128     H      0.961590000000     0.485940000000     0.194240000000     0.0480164  
H129     H      0.080970000000     0.488170000000     0.327170000000     0.0541506  
H130     H      0.006720000000     0.432290000000     0.146190000000     0.0308064  
H131     H      0.007070000000     0.566410000000     0.198980000000     0.0509454  
H132     H      0.001630000000     0.441780000000     0.326560000000     0.0474759  
H133     H      0.076300000000     0.556580000000     0.374330000000     0.0111535  
H134     H      0.100990000000     0.517440000000     0.188450000000     0.0224671  
H135     H      0.053490000000     0.611090000000     0.319050000000     0.0733327  
H136     H      0.013300000000     0.611670000000     0.361950000000     0.0795853  
H137     H      0.270710000000     0.050490000000     0.471600000000     0.040281   
H138     H      0.144590000000     0.927160000000     0.551150000000     0.0256     
H139     H      0.334670000000     0.975570000000     0.584050000000     0.023396   
H140     H      0.274850000000     0.924920000000     0.555730000000     0.0411472  
H141     H      0.214360000000     0.955440000000     0.585320000000     0.0427739  
H142     H      0.204040000000     0.014990000000     0.448100000000     0.0494794  
H143     H      0.354290000000     0.058880000000     0.480940000000     0.0300713  
H144     H      0.127790000000     0.967280000000     0.594770000000     0.0296331  
H145     H      0.299560000000     0.922650000000     0.500050000000     0.0490368  
H146     H      0.184440000000     0.051890000000     0.494070000000     0.0538926  
H147     H      0.362910000000     0.929850000000     0.553460000000     0.0314993  
H148     H      0.300600000000     0.000820000000     0.448470000000     0.0473545  
H149     H      0.195700000000     0.013960000000     0.583190000000     0.0498579  
H150     H      0.118990000000     0.015710000000     0.455310000000     0.00976758 
H151     H      0.324710000000     0.057300000000     0.535380000000     0.0258373  
H152     H      0.155870000000     0.949740000000     0.424740000000     0.0743764  
H153     H      0.110240000000     0.931800000000     0.457450000000     0.0840645  
H154     H      0.707990000000     0.103370000000     0.500820000000     0.0414576  
H155     H      0.817740000000     0.078570000000     0.619520000000     0.028304   
H156     H      0.685270000000     0.960000000000     0.490380000000     0.0246317  
H157     H      0.721040000000     0.966610000000     0.565330000000     0.0405046  
H158     H      0.772070000000     0.009420000000     0.609630000000     0.0426288  
H159     H      0.777130000000     0.088870000000     0.481570000000     0.0493427  
H160     H      0.632080000000     0.078790000000     0.468280000000     0.0310185  
H161     H      0.855350000000     0.029110000000     0.623920000000     0.0296693  
H162     H      0.675990000000     0.004420000000     0.586410000000     0.0475454  
H163     H      0.813290000000     0.039730000000     0.485100000000     0.056371   
H164     H      0.643510000000     0.945640000000     0.534120000000     0.0314721  
H165     H      0.668080000000     0.088110000000     0.544390000000     0.0513055  
H166     H      0.810350000000     0.986880000000     0.565830000000     0.049225   
H167     H      0.859790000000     0.108050000000     0.498680000000     0.0100456  
H168     H      0.678300000000     0.041150000000     0.450560000000     0.0225517  
H169     H      0.800880000000     0.158870000000     0.523720000000     0.073608   
H170     H      0.843470000000     0.157040000000     0.564310000000     0.0806547  
H171     H      0.931840000000     0.819110000000     0.458580000000     0.0412733  
H172     H      0.053200000000     0.713820000000     0.483030000000     0.0281551  
H173     H      0.924430000000     0.857230000000     0.589580000000     0.0231825  
H174     H      0.994840000000     0.810160000000     0.594440000000     0.0405709  
H175     H      0.045160000000     0.760370000000     0.551830000000     0.0431447  
H176     H      0.913990000000     0.749470000000     0.476530000000     0.0495925  
H177     H      0.925640000000     0.906270000000     0.469180000000     0.0310857  
H178     H      0.062500000000     0.679240000000     0.533580000000     0.0295542  
H179     H      0.025480000000     0.847630000000     0.554950000000     0.0492388  
H180     H      0.918710000000     0.717390000000     0.528050000000     0.0542737  
H181     H      0.973570000000     0.890310000000     0.608750000000     0.0324167  
H182     H      0.985730000000     0.848730000000     0.464020000000     0.0492402  
H183     H      0.002040000000     0.721920000000     0.575910000000     0.0492971  
H184     H      0.930100000000     0.664070000000     0.466490000000     0.0104765  
H185     H      0.892110000000     0.871770000000     0.508170000000     0.022385   
H186     H      0.947750000000     0.716290000000     0.407300000000     0.07366    
H187     H      0.991500000000     0.676760000000     0.410010000000     0.0792034  
H188     H      0.061810000000     0.249330000000     0.481030000000     0.0419795  
H189     H      0.956330000000     0.358610000000     0.517850000000     0.0288848  
H190     H      0.063640000000     0.192940000000     0.609600000000     0.0247335  
H191     H      0.004290000000     0.251790000000     0.619550000000     0.0404102  
H192     H      0.965790000000     0.314770000000     0.588310000000     0.0427848  
H193     H      0.094260000000     0.310770000000     0.507230000000     0.0493697  
H194     H      0.056390000000     0.162270000000     0.482190000000     0.030882   
H195     H      0.955250000000     0.396410000000     0.566880000000     0.0284029  
H196     H      0.967010000000     0.225830000000     0.576680000000     0.0479498  
H197     H      0.091990000000     0.345560000000     0.556910000000     0.053771   
H198     H      0.008240000000     0.166710000000     0.622160000000     0.0310147  
H199     H      0.004270000000     0.227570000000     0.486480000000     0.0506449  
H200     H      0.014370000000     0.349570000000     0.606760000000     0.0489976  
H201     H      0.084140000000     0.396640000000     0.493070000000     0.0104299  
H202     H      0.094560000000     0.186700000000     0.524290000000     0.0223952  
H203     H      0.061390000000     0.342530000000     0.436760000000     0.0733028  
H204     H      0.022200000000     0.386590000000     0.437230000000     0.0817401  
N1       N      0.682250000000     0.534160000000     0.998820000000    -0.199495   
N2       N      0.917340000000     0.531540000000     0.012860000000    -0.18939    
N3       N      0.727500000000     0.509490000000     0.933720000000    -0.195868   
N4       N      0.180970000000     0.471690000000     0.021450000000    -0.199952   
N5       N      0.412400000000     0.508260000000     0.995160000000    -0.18831    
N6       N      0.212190000000     0.396800000000     0.039470000000    -0.196225   
N7       N      0.538110000000     0.656310000000     0.976970000000    -0.199197   
N8       N      0.513080000000     0.887140000000     0.998040000000    -0.1885     
N9       N      0.555370000000     0.692960000000     0.904800000000    -0.195948   
N10      N      0.541260000000     0.154430000000     0.017310000000    -0.200081   
N11      N      0.562370000000     0.391500000000     0.019570000000    -0.188931   
N12      N      0.477630000000     0.203030000000     0.993670000000    -0.195905   
N13      N      0.540190000000     0.037030000000     0.875610000000    -0.199711   
N14      N      0.510920000000     0.017130000000     0.641380000000    -0.189032   
N15      N      0.612730000000     0.064950000000     0.845220000000    -0.196287   
N16      N      0.484980000000     0.986650000000     0.376450000000    -0.198929   
N17      N      0.516570000000     0.010810000000     0.141120000000    -0.188664   
N18      N      0.412060000000     0.001060000000     0.338800000000    -0.196519   
N19      N      0.051510000000     0.504110000000     0.877860000000    -0.198988   
N20      N      0.006260000000     0.549220000000     0.645510000000    -0.188729   
N21      N      0.062600000000     0.438320000000     0.828470000000    -0.196029   
N22      N      0.008820000000     0.524180000000     0.378850000000    -0.199389   
N23      N      0.045480000000     0.496280000000     0.145700000000    -0.18892    
N24      N      0.026860000000     0.592200000000     0.334830000000    -0.196285   
N25      N      0.118430000000     0.990010000000     0.524780000000    -0.199146   
N26      N      0.363260000000     0.996640000000     0.520730000000    -0.188683   
N27      N      0.143200000000     0.947120000000     0.458330000000    -0.196406   
N28      N      0.861530000000     0.069100000000     0.561640000000    -0.199111   
N29      N      0.633600000000     0.011260000000     0.500030000000    -0.188738   
N30      N      0.816790000000     0.138140000000     0.548640000000    -0.196504   
N31      N      0.997810000000     0.667700000000     0.497720000000    -0.199079   
N32      N      0.950600000000     0.903040000000     0.538940000000    -0.189014   
N33      N      0.975730000000     0.704450000000     0.427060000000    -0.196384   
N34      N      0.016780000000     0.400000000000     0.524850000000    -0.198524   
N35      N      0.032490000000     0.160050000000     0.552390000000    -0.188491   
N36      N      0.034930000000     0.358330000000     0.455830000000    -0.196404   
O1       O      0.009250000000     0.097320000000     0.509740000000    -0.553925   
O2       O      0.963920000000     0.973360000000     0.503650000000    -0.55188    
O3       O      0.924840000000     0.057440000000     0.515360000000    -0.560698   
O4       O      0.047990000000     0.014470000000     0.497380000000    -0.562857   
O5       O      0.058250000000     0.009920000000     0.573210000000    -0.556029   
O6       O      0.931680000000     0.044930000000     0.590710000000    -0.55791    
O7       O      0.977360000000     0.965580000000     0.578690000000    -0.56664    
O8       O      0.012810000000     0.091220000000     0.586080000000    -0.561717   
O9       O      0.973610000000     0.466330000000     0.521860000000    -0.560411   
O10      O      0.963960000000     0.595860000000     0.502500000000    -0.557411   
O11      O      0.969860000000     0.521570000000     0.447620000000    -0.558025   
O12      O      0.968020000000     0.539500000000     0.576990000000    -0.556926   
O13      O      0.045670000000     0.541840000000     0.577470000000    -0.559644   
O14      O      0.046530000000     0.533750000000     0.447490000000    -0.562887   
O15      O      0.041100000000     0.602270000000     0.508850000000    -0.561237   
O16      O      0.050890000000     0.471390000000     0.515880000000    -0.557246   
O17      O      0.507100000000     0.971920000000     0.577310000000    -0.564646   
O18      O      0.496190000000     0.956960000000     0.448620000000    -0.560816   
O19      O      0.566890000000     0.968490000000     0.508170000000    -0.557907   
O20      O      0.435050000000     0.961140000000     0.519660000000    -0.554016   
O21      O      0.430220000000     0.037520000000     0.509640000000    -0.564391   
O22      O      0.561290000000     0.044830000000     0.498320000000    -0.559519   
O23      O      0.489350000000     0.033360000000     0.439950000000    -0.560023   
O24      O      0.500580000000     0.048420000000     0.569360000000    -0.555494   
O25      O      0.495650000000     0.089870000000     0.013630000000    -0.563344   
O26      O      0.482110000000     0.960410000000     0.996530000000    -0.555462   
O27      O      0.483290000000     0.018430000000     0.069820000000    -0.556333   
O28      O      0.494900000000     0.033860000000     0.940610000000    -0.557798   
O29      O      0.570980000000     0.019440000000     0.945980000000    -0.564635   
O30      O      0.560540000000     0.012510000000     0.075540000000    -0.561563   
O31      O      0.558440000000     0.951380000000     0.007550000000    -0.562809   
O32      O      0.572900000000     0.081620000000     0.013710000000    -0.560906   
O33      O      0.039400000000     0.465660000000     0.945630000000    -0.562368   
O34      O      0.040390000000     0.460850000000     0.075620000000    -0.561761   
O35      O      0.976080000000     0.478030000000     0.012540000000    -0.557839   
O36      O      0.105260000000     0.448870000000     0.009540000000    -0.556523   
O37      O      0.121670000000     0.523860000000     0.018080000000    -0.566156   
O38      O      0.993770000000     0.553130000000     0.008690000000    -0.561588   
O39      O      0.053940000000     0.536820000000     0.078330000000    -0.55717    
O40      O      0.062590000000     0.539250000000     0.947890000000    -0.557596   
O41      O      0.559240000000     0.453350000000     0.969800000000    -0.55171    
O42      O      0.537850000000     0.581900000000     0.949100000000    -0.553771   
O43      O      0.613530000000     0.528330000000     0.959440000000    -0.559302   
O44      O      0.483240000000     0.506790000000     0.958790000000    -0.55639    
O45      O      0.480130000000     0.526780000000     0.032710000000    -0.561602   
O46      O      0.612080000000     0.531030000000     0.036050000000    -0.562497   
O47      O      0.544590000000     0.593800000000     0.024530000000    -0.566856   
O48      O      0.548010000000     0.464860000000     0.044770000000    -0.566782   
V1       V      0.986070000000     0.035900000000     0.503460000000     1.37845    
V2       V      0.995460000000     0.027830000000     0.585220000000     1.39462    
V3       V      0.965700000000     0.530640000000     0.512250000000     1.38303    
V4       V      0.049200000000     0.537340000000     0.512490000000     1.39124    
V5       V      0.501370000000     0.961540000000     0.513590000000     1.38967    
V6       V      0.495330000000     0.044110000000     0.504050000000     1.38995    
V7       V      0.485820000000     0.025770000000     0.004890000000     1.38086    
V8       V      0.568800000000     0.015920000000     0.010950000000     1.39858    
V9       V      0.039700000000     0.460260000000     0.010570000000     1.38551    
V10      V      0.058610000000     0.541330000000     0.013210000000     1.39339    
V11      V      0.548490000000     0.517100000000     0.956060000000     1.36728    
V12      V      0.546010000000     0.529710000000     0.037590000000     1.40861    


