data_structure

_audit_creation_method RASPA-1.0
_audit_creation_date 2023-5-25
_audit_author_name 'Poobodin Mano'

_cell_length_a    29.1714
_cell_length_b    28.4041
_cell_length_c    29.1436
_cell_angle_alpha 90
_cell_angle_beta  89.9998
_cell_angle_gamma 90
_cell_volume      24148

_symmetry_cell_setting          triclinic
_symmetry_space_group_name_Hall 'P 1'
_symmetry_space_group_name_H-M  'P 1'
_symmetry_Int_Tables_number     1

_symmetry_equiv_pos_as_xyz 'x,y,z'

loop_
_atom_site_label
_atom_site_type_symbol
_atom_site_fract_x
_atom_site_fract_y
_atom_site_fract_z
_atom_site_charge
C1       C      0.020180000000     0.099380000000     0.513230000000     0.474982   
C2       C      0.056870000000     0.926580000000     0.535890000000     0.475425   
C3       C      0.954860000000     0.995230000000     0.538650000000     0.47601    
C4       C      0.122770000000     0.031230000000     0.510930000000     0.474525   
C5       C      0.967780000000     0.429610000000     0.505900000000     0.472867   
C6       C      0.980330000000     0.606810000000     0.492640000000     0.474486   
C7       C      0.976390000000     0.510970000000     0.412150000000     0.47465    
C8       C      0.970590000000     0.524790000000     0.584990000000     0.475781   
C9       C      0.538340000000     0.007660000000     0.613490000000     0.475994   
C10      C      0.541870000000     0.027870000000     0.440630000000     0.473722   
C11      C      0.625950000000     0.012430000000     0.528190000000     0.4755     
C12      C      0.452510000000     0.022950000000     0.525340000000     0.476003   
C13      C      0.500250000000     0.136480000000     0.006970000000     0.475999   
C14      C      0.538000000000     0.967140000000     0.045440000000     0.476457   
C15      C      0.515880000000     0.070050000000     0.111030000000     0.475262   
C16      C      0.521310000000     0.033110000000     0.940740000000     0.472941   
C17      C      0.998400000000     0.510110000000     0.911590000000     0.477199   
C18      C      0.015560000000     0.525650000000     0.083730000000     0.477904   
C19      C      0.920360000000     0.511970000000     0.007710000000     0.477252   
C20      C      0.092420000000     0.523180000000     0.987120000000     0.477884   
C21      C      0.487210000000     0.464290000000     0.991370000000     0.476077   
C22      C      0.520850000000     0.636430000000     0.021430000000     0.477281   
C23      C      0.590060000000     0.534370000000     0.005850000000     0.474199   
C24      C      0.419370000000     0.566790000000     0.007980000000     0.476948   
C25      C      0.663940000000     0.549620000000     0.043300000000     0.0167122  
C26      C      0.849770000000     0.464960000000     0.001700000000     0.0201234  
C27      C      0.849250000000     0.545830000000     0.039740000000     0.0602348  
C28      C      0.804620000000     0.476060000000     0.977190000000    -0.106534   
C29      C      0.706100000000     0.519900000000     0.054500000000    -0.102862   
C30      C      0.801250000000     0.554820000000     0.019590000000    -0.114436   
C31      C      0.730690000000     0.504980000000     0.011200000000     0.0175888  
C32      C      0.776810000000     0.509750000000     0.006040000000     0.0247457  
C33      C      0.660340000000     0.512790000000     0.964030000000     0.0180416  
C34      C      0.700890000000     0.480620000000     0.976020000000    -0.103949   
C35      C      0.348350000000     0.598020000000     0.971470000000     0.0170259  
C36      C      0.168690000000     0.486530000000     0.994110000000     0.0206313  
C37      C      0.159120000000     0.565560000000     0.954390000000     0.0606317  
C38      C      0.209590000000     0.505190000000     0.021320000000    -0.106449   
C39      C      0.307510000000     0.567950000000     0.955870000000    -0.102168   
C40      C      0.203270000000     0.583270000000     0.977640000000    -0.114512   
C41      C      0.280230000000     0.548690000000     0.996330000000     0.0164791  
C42      C      0.233820000000     0.543520000000     0.994500000000     0.025178   
C43      C      0.345690000000     0.560940000000     0.049450000000     0.0182065  
C44      C      0.308320000000     0.526620000000     0.034450000000    -0.10279    
C45      C      0.517150000000     0.894010000000     0.086310000000     0.0185911  
C46      C      0.550050000000     0.712580000000     0.993330000000     0.019457   
C47      C      0.509050000000     0.705920000000     0.070810000000     0.0598146  
C48      C      0.584000000000     0.747880000000     0.014050000000    -0.107051   
C49      C      0.509460000000     0.845310000000     0.065530000000    -0.102479   
C50      C      0.540980000000     0.744420000000     0.089580000000    -0.114917   
C51      C      0.554130000000     0.822640000000     0.050040000000     0.0174637  
C52      C      0.559920000000     0.775040000000     0.051550000000     0.0247411  
C53      C      0.593230000000     0.901210000000     0.046740000000     0.0182657  
C54      C      0.586330000000     0.853810000000     0.022620000000    -0.10318    
C55      C      0.525060000000     0.210520000000     0.971400000000     0.0184424  
C56      C      0.450560000000     0.390490000000     0.017410000000     0.0189148  
C57      C      0.480840000000     0.399230000000     0.935920000000     0.0624576  
C58      C      0.465620000000     0.338790000000     0.018260000000    -0.105334   
C59      C      0.501710000000     0.242910000000     0.936540000000    -0.104012   
C60      C      0.499900000000     0.348870000000     0.937740000000    -0.116689   
C61      C      0.466410000000     0.271730000000     0.962040000000     0.0172532  
C62      C      0.472750000000     0.318450000000     0.970610000000     0.026535   
C63      C      0.450730000000     0.205940000000     0.017160000000     0.0156627  
C64      C      0.429560000000     0.242340000000     0.984690000000    -0.101906   
C65      C      0.557770000000     0.047640000000     0.865680000000     0.0171586  
C66      C      0.525030000000     0.958320000000     0.682160000000     0.0192648  
C67      C      0.565730000000     0.037670000000     0.687990000000     0.060696   
C68      C      0.499740000000     0.968080000000     0.727520000000    -0.106282   
C69      C      0.574890000000     0.014010000000     0.828740000000    -0.103856   
C70      C      0.541660000000     0.046580000000     0.733950000000    -0.114926   
C71      C      0.534680000000     0.993530000000     0.802870000000     0.0182811  
C72      C      0.527620000000     0.001100000000     0.757200000000     0.025232   
C73      C      0.483770000000     0.000930000000     0.871160000000     0.015426   
C74      C      0.500760000000     0.967640000000     0.832990000000    -0.103342   
C75      C      0.531300000000     0.994060000000     0.363440000000     0.0186713  
C76      C      0.551090000000     0.102780000000     0.182030000000     0.0182145  
C77      C      0.473100000000     0.063240000000     0.183880000000     0.0617798  
C78      C      0.565370000000     0.076410000000     0.225760000000    -0.104526   
C79      C      0.502240000000     0.012750000000     0.323800000000    -0.103437   
C80      C      0.487850000000     0.033510000000     0.225350000000    -0.115739   
C81      C      0.527220000000     0.052450000000     0.299620000000     0.0166359  
C82      C      0.524670000000     0.058110000000     0.253150000000     0.0244532  
C83      C      0.568880000000     0.073230000000     0.373290000000     0.0163781  
C84      C      0.543890000000     0.091860000000     0.330690000000    -0.10194    
C85      C      0.981980000000     0.462330000000     0.842940000000     0.0183252  
C86      C      0.005720000000     0.550330000000     0.658050000000     0.019391   
C87      C      0.928840000000     0.507320000000     0.656630000000     0.0605982  
C88      C      0.021800000000     0.518990000000     0.697320000000    -0.105436   
C89      C      0.952040000000     0.473060000000     0.800930000000    -0.104165   
C90      C      0.945140000000     0.475560000000     0.696480000000    -0.115764   
C91      C      0.976660000000     0.507870000000     0.770330000000     0.0191891  
C92      C      0.981210000000     0.500960000000     0.724440000000     0.0247238  
C93      C      0.019840000000     0.542270000000     0.836340000000     0.0173895  
C94      C      0.991760000000     0.552970000000     0.793500000000    -0.102606   
C95      C      0.939630000000     0.524540000000     0.336910000000     0.0172345  
C96      C      0.041450000000     0.492560000000     0.157960000000     0.0200716  
C97      C      0.004670000000     0.573670000000     0.153560000000     0.0615507  
C98      C      0.011870000000     0.480150000000     0.199430000000    -0.1059     
C99      C      0.958620000000     0.553680000000     0.296930000000    -0.102876   
C100     C      0.974340000000     0.561570000000     0.195300000000    -0.116346   
C101     C      0.994710000000     0.525490000000     0.271560000000     0.0169956  
C102     C      0.996580000000     0.524020000000     0.224880000000     0.0256907  
C103     C      0.013560000000     0.478960000000     0.342410000000     0.0167926  
C104     C      0.032890000000     0.505850000000     0.301330000000    -0.102008   
C105     C      0.193170000000     0.072610000000     0.535900000000     0.017772   
C106     C      0.378820000000     0.985420000000     0.505740000000     0.0200103  
C107     C      0.381050000000     0.065230000000     0.545950000000     0.0597781  
C108     C      0.339890000000     0.002460000000     0.474640000000    -0.107367   
C109     C      0.240230000000     0.051660000000     0.546650000000    -0.102223   
C110     C      0.339080000000     0.080450000000     0.517530000000    -0.11474    
C111     C      0.265100000000     0.036050000000     0.503390000000     0.0167654  
C112     C      0.311720000000     0.038670000000     0.500110000000     0.0250208  
C113     C      0.190790000000     0.030420000000     0.460200000000     0.0176002  
C114     C      0.236960000000     0.006710000000     0.470150000000    -0.102938   
C115     C      0.700400000000     0.049540000000     0.545770000000     0.0181299  
C116     C      0.882560000000     0.956760000000     0.514160000000     0.0187375  
C117     C      0.887760000000     0.000290000000     0.590150000000     0.0609134  
C118     C      0.835910000000     0.979190000000     0.504420000000    -0.10441    
C119     C      0.738770000000     0.031720000000     0.577180000000    -0.104222   
C120     C      0.841420000000     0.024280000000     0.580510000000    -0.11553    
C121     C      0.765620000000     0.993840000000     0.552340000000     0.0181817  
C122     C      0.812160000000     0.995270000000     0.548090000000     0.0247251  
C123     C      0.696980000000     0.970620000000     0.505760000000     0.0172916  
C124     C      0.736840000000     0.953020000000     0.535200000000    -0.102975   
C125     C      0.047130000000     0.854580000000     0.582490000000     0.0158832  
C126     C      0.024400000000     0.676620000000     0.468180000000     0.0202924  
C127     C      0.951200000000     0.685530000000     0.514800000000     0.0591597  
C128     C      0.050400000000     0.707290000000     0.502150000000    -0.105031   
C129     C      0.010310000000     0.818750000000     0.567620000000    -0.102085   
C130     C      0.976540000000     0.719520000000     0.548000000000    -0.114548   
C131     C      0.027760000000     0.788580000000     0.528170000000     0.0166624  
C132     C      0.017940000000     0.741770000000     0.524910000000     0.0241895  
C133     C      0.084450000000     0.850610000000     0.505160000000     0.0194169  
C134     C      0.048960000000     0.815260000000     0.488190000000    -0.101692   
C135     C      0.925100000000     0.354950000000     0.494580000000     0.0161634  
C136     C      0.028650000000     0.181210000000     0.540500000000     0.0191744  
C137     C      0.986440000000     0.163190000000     0.465720000000     0.0591567  
C138     C      0.991230000000     0.215960000000     0.553630000000    -0.105216   
C139     C      0.940860000000     0.309540000000     0.470220000000    -0.103505   
C140     C      0.950430000000     0.201420000000     0.478060000000    -0.114896   
C141     C      0.975340000000     0.283640000000     0.499860000000     0.0191546  
C142     C      0.970920000000     0.237210000000     0.510740000000     0.0238772  
C143     C      0.998630000000     0.356890000000     0.540330000000     0.0179774  
C144     C      0.015660000000     0.313050000000     0.515650000000    -0.10307    
H1       H      0.728300000000     0.538970000000     0.079170000000     0.0446864  
H2       H      0.842290000000     0.444500000000     0.033370000000     0.0292485  
H3       H      0.673350000000     0.544080000000     0.945110000000     0.027239   
H4       H      0.719570000000     0.473060000000     0.943640000000     0.042012   
H5       H      0.786410000000     0.442110000000     0.971940000000     0.0427527  
H6       H      0.780830000000     0.578010000000     0.042460000000     0.0479351  
H7       H      0.643490000000     0.554630000000     0.075130000000     0.0319264  
H8       H      0.870790000000     0.442250000000     0.978780000000     0.0297868  
H9       H      0.688100000000     0.446810000000     0.990320000000     0.049154   
H10      H      0.805780000000     0.575620000000     0.987590000000     0.0523346  
H11      H      0.636740000000     0.493310000000     0.940790000000     0.0297119  
H12      H      0.694560000000     0.487510000000     0.072530000000     0.0511302  
H13      H      0.811640000000     0.492120000000     0.943120000000     0.0495031  
H14      H      0.868260000000     0.579740000000     0.038680000000     0.0259279  
H15      H      0.675790000000     0.585060000000     0.032200000000     0.0232224  
H16      H      0.286750000000     0.588560000000     0.931260000000     0.0442034  
H17      H      0.181500000000     0.467840000000     0.963120000000     0.0289486  
H18      H      0.329180000000     0.592770000000     0.064410000000     0.0255108  
H19      H      0.287300000000     0.518820000000     0.065320000000     0.0420414  
H20      H      0.232530000000     0.474670000000     0.027910000000     0.0432521  
H21      H      0.220920000000     0.609210000000     0.955380000000     0.0480326  
H22      H      0.370830000000     0.605460000000     0.941540000000     0.0334544  
H23      H      0.150450000000     0.460310000000     0.015790000000     0.0313656  
H24      H      0.323990000000     0.493290000000     0.022040000000     0.0505637  
H25      H      0.192930000000     0.603690000000     0.008510000000     0.0529787  
H26      H      0.366280000000     0.544030000000     0.076960000000     0.0335578  
H27      H      0.321020000000     0.537330000000     0.936350000000     0.0526588  
H28      H      0.197760000000     0.519510000000     0.054790000000     0.0501165  
H29      H      0.135110000000     0.595890000000     0.952450000000     0.0267558  
H30      H      0.334820000000     0.632300000000     0.983990000000     0.0249913  
H31      H      0.489890000000     0.824120000000     0.090620000000     0.0456134  
H32      H      0.522870000000     0.732240000000     0.974640000000     0.0294638  
H33      H      0.612590000000     0.895280000000     0.079120000000     0.0252303  
H34      H      0.620770000000     0.837450000000     0.019150000000     0.0418564  
H35      H      0.596750000000     0.770450000000     0.985740000000     0.043017   
H36      H      0.524990000000     0.764330000000     0.118160000000     0.0469636  
H37      H      0.483490000000     0.911590000000     0.091560000000     0.0311086  
H38      H      0.568760000000     0.690750000000     0.967750000000     0.0309376  
H39      H      0.571840000000     0.859600000000     0.987790000000     0.0497425  
H40      H      0.570750000000     0.726470000000     0.105790000000     0.0510021  
H41      H      0.614180000000     0.924340000000     0.024180000000     0.0311318  
H42      H      0.487130000000     0.849140000000     0.034850000000     0.0538177  
H43      H      0.613800000000     0.728740000000     0.028790000000     0.0489453  
H44      H      0.503960000000     0.679920000000     0.098860000000     0.0270361  
H45      H      0.532990000000     0.889300000000     0.120720000000     0.022414   
H46      H      0.528640000000     0.264060000000     0.919370000000     0.0418302  
H47      H      0.413370000000     0.391620000000     0.009100000000     0.0255785  
H48      H      0.462350000000     0.224520000000     0.048660000000     0.0243394  
H49      H      0.403340000000     0.263750000000     0.002700000000     0.0425509  
H50      H      0.440500000000     0.318790000000     0.039030000000     0.0437784  
H51      H      0.499730000000     0.334190000000     0.902310000000     0.0478492  
H52      H      0.550000000000     0.187850000000     0.952750000000     0.0295326  
H53      H      0.454300000000     0.405350000000     0.052500000000     0.0317336  
H54      H      0.410810000000     0.223100000000     0.957280000000     0.0502055  
H55      H      0.536140000000     0.350030000000     0.949540000000     0.0513691  
H56      H      0.423850000000     0.180420000000     0.027800000000     0.0326318  
H57      H      0.484470000000     0.221370000000     0.909770000000     0.0499779  
H58      H      0.498880000000     0.336510000000     0.036730000000     0.0509175  
H59      H      0.505730000000     0.420390000000     0.915620000000     0.0246883  
H60      H      0.544600000000     0.232260000000     0.996430000000     0.0274916  
H61      H      0.600530000000     0.031510000000     0.806440000000     0.0451586  
H62      H      0.555300000000     0.935710000000     0.689410000000     0.0295018  
H63      H      0.461050000000     0.027980000000     0.855510000000     0.0271004  
H64      H      0.470270000000     0.954950000000     0.813900000000     0.0423161  
H65      H      0.494130000000     0.933530000000     0.744450000000     0.0432451  
H66      H      0.562120000000     0.070680000000     0.755820000000     0.0477361  
H67      H      0.587640000000     0.060100000000     0.885990000000     0.0326881  
H68      H      0.501750000000     0.938060000000     0.659270000000     0.0312187  
H69      H      0.517900000000     0.936610000000     0.848670000000     0.0487507  
H70      H      0.509600000000     0.066420000000     0.726690000000     0.0531889  
H71      H      0.462770000000     0.980130000000     0.895730000000     0.0323094  
H72      H      0.593500000000     0.984640000000     0.845740000000     0.0517     
H73      H      0.465790000000     0.984240000000     0.720300000000     0.0504554  
H74      H      0.567830000000     0.072150000000     0.670080000000     0.0268795  
H75      H      0.542550000000     0.079000000000     0.848640000000     0.0234237  
H76      H      0.495800000000     0.982470000000     0.300530000000     0.0419123  
H77      H      0.538840000000     0.138350000000     0.192180000000     0.0267717  
H78      H      0.603590000000     0.061370000000     0.362530000000     0.023531   
H79      H      0.566460000000     0.117540000000     0.313240000000     0.0421863  
H80      H      0.588360000000     0.099580000000     0.245790000000     0.0426065  
H81      H      0.456850000000     0.025620000000     0.246260000000     0.0475492  
H82      H      0.511220000000     0.966480000000     0.381620000000     0.0313327  
H83      H      0.581860000000     0.108140000000     0.160150000000     0.0322056  
H84      H      0.513300000000     0.111940000000     0.342260000000     0.0510403  
H85      H      0.501760000000     0.999350000000     0.212930000000     0.0511354  
H86      H      0.573730000000     0.102620000000     0.398020000000     0.0321671  
H87      H      0.468800000000     0.025780000000     0.336980000000     0.0496525  
H88      H      0.586310000000     0.045460000000     0.215480000000     0.0500327  
H89      H      0.449820000000     0.040590000000     0.163280000000     0.0266625  
H90      H      0.562710000000     0.977260000000     0.349260000000     0.0256237  
H91      H      0.945400000000     0.439070000000     0.783290000000     0.042129   
H92      H      0.992430000000     0.583710000000     0.672900000000     0.0255887  
H93      H      0.053820000000     0.528540000000     0.825350000000     0.0251811  
H94      H      0.011200000000     0.577110000000     0.770830000000     0.0434417  
H95      H      0.047620000000     0.537660000000     0.718510000000     0.0433895  
H96      H      0.914960000000     0.464460000000     0.717120000000     0.0476075  
H97      H      0.962040000000     0.439860000000     0.867020000000     0.0297662  
H98      H      0.035610000000     0.559740000000     0.636240000000     0.0314844  
H99      H      0.960460000000     0.572530000000     0.803980000000     0.0526089  
H100     H      0.960680000000     0.443040000000     0.682020000000     0.0505188  
H101     H      0.026130000000     0.575610000000     0.855320000000     0.0327459  
H102     H      0.918730000000     0.488240000000     0.812060000000     0.0499693  
H103     H      0.039890000000     0.488110000000     0.682450000000     0.0510942  
H104     H      0.907610000000     0.484850000000     0.633690000000     0.025522   
H105     H      0.012610000000     0.442050000000     0.831680000000     0.0270818  
H106     H      0.929040000000     0.562840000000     0.274650000000     0.0428709  
H107     H      0.075240000000     0.505130000000     0.170670000000     0.0258256  
H108     H      0.998340000000     0.445540000000     0.329600000000     0.0238851  
H109     H      0.057490000000     0.483120000000     0.282740000000     0.0424076  
H110     H      0.030400000000     0.454350000000     0.221010000000     0.0431069  
H111     H      0.967340000000     0.594510000000     0.214740000000     0.0486466  
H112     H      0.915420000000     0.546950000000     0.356700000000     0.0334346  
H113     H      0.048060000000     0.460070000000     0.137760000000     0.0317048  
H114     H      0.053240000000     0.536090000000     0.314440000000     0.0515405  
H115     H      0.940810000000     0.547950000000     0.182920000000     0.0531769  
H116     H      0.042100000000     0.469420000000     0.365910000000     0.0326305  
H117     H      0.974090000000     0.586800000000     0.310100000000     0.0505582  
H118     H      0.980620000000     0.461730000000     0.187010000000     0.0524388  
H119     H      0.983460000000     0.595920000000     0.130410000000     0.0264429  
H120     H      0.919980000000     0.494260000000     0.322760000000     0.026029   
H121     H      0.259580000000     0.077280000000     0.567680000000     0.0448785  
H122     H      0.363900000000     0.965220000000     0.534840000000     0.0289808  
H123     H      0.197060000000     0.063170000000     0.440220000000     0.0263652  
H124     H      0.254720000000     0.002680000000     0.436640000000     0.0417975  
H125     H      0.319740000000     0.970920000000     0.464720000000     0.0430067  
H126     H      0.318440000000     0.107250000000     0.535930000000     0.0474767  
H127     H      0.174230000000     0.078390000000     0.568520000000     0.0319507  
H128     H      0.400450000000     0.960700000000     0.485550000000     0.0313362  
H129     H      0.231140000000     0.971180000000     0.485060000000     0.0494686  
H130     H      0.352080000000     0.099340000000     0.486740000000     0.0517793  
H131     H      0.169870000000     0.006300000000     0.438630000000     0.0315729  
H132     H      0.235270000000     0.020070000000     0.568600000000     0.0530841  
H133     H      0.354290000000     0.018470000000     0.442960000000     0.0493268  
H134     H      0.403680000000     0.096520000000     0.549390000000     0.0267911  
H135     H      0.198490000000     0.107730000000     0.519870000000     0.0238101  
H136     H      0.759930000000     0.062760000000     0.586460000000     0.0423267  
H137     H      0.876620000000     0.921360000000     0.529320000000     0.0265991  
H138     H      0.711160000000     0.983450000000     0.472620000000     0.0235737  
H139     H      0.756460000000     0.925900000000     0.516270000000     0.0429932  
H140     H      0.815450000000     0.954390000000     0.483510000000     0.0431293  
H141     H      0.823940000000     0.030660000000     0.613890000000     0.0480313  
H142     H      0.679460000000     0.075350000000     0.565380000000     0.0326677  
H143     H      0.900690000000     0.951100000000     0.481070000000     0.0325969  
H144     H      0.722380000000     0.934720000000     0.565650000000     0.0523904  
H145     H      0.847750000000     0.059200000000     0.564440000000     0.0505263  
H146     H      0.673870000000     0.940580000000     0.497870000000     0.0325259  
H147     H      0.723850000000     0.016900000000     0.609170000000     0.051939   
H148     H      0.841430000000     0.010780000000     0.482590000000     0.0503248  
H149     H      0.909100000000     0.026590000000     0.608670000000     0.026266   
H150     H      0.716010000000     0.068370000000     0.516160000000     0.025528   
H151     H      0.001800000000     0.796930000000     0.598110000000     0.0428873  
H152     H      0.012410000000     0.699310000000     0.439490000000     0.0261443  
H153     H      0.114190000000     0.830680000000     0.519070000000     0.0227999  
H154     H      0.064750000000     0.792640000000     0.461630000000     0.0424994  
H155     H      0.080240000000     0.723760000000     0.485050000000     0.0426592  
H156     H      0.951920000000     0.746240000000     0.561110000000     0.0487847  
H157     H      0.032090000000     0.878960000000     0.608270000000     0.0325504  
H158     H      0.048190000000     0.650230000000     0.453120000000     0.0315546  
H159     H      0.021060000000     0.834880000000     0.470590000000     0.0544599  
H160     H      0.988780000000     0.699150000000     0.578190000000     0.0508785  
H161     H      0.097010000000     0.872210000000     0.475900000000     0.0300472  
H162     H      0.978860000000     0.837700000000     0.556520000000     0.0510691  
H163     H      0.064990000000     0.684210000000     0.529280000000     0.0522693  
H164     H      0.926890000000     0.664440000000     0.535840000000     0.0263471  
H165     H      0.075820000000     0.835140000000     0.599040000000     0.0258169  
H166     H      0.909750000000     0.288140000000     0.463420000000     0.0421778  
H167     H      0.057440000000     0.201020000000     0.524580000000     0.0259232  
H168     H      0.981900000000     0.345810000000     0.572890000000     0.0226673  
H169     H      0.040470000000     0.293930000000     0.537570000000     0.0430458  
H170     H      0.004220000000     0.242380000000     0.578450000000     0.0424457  
H171     H      0.936670000000     0.217390000000     0.446090000000     0.0474165  
H172     H      0.903980000000     0.375950000000     0.470280000000     0.0317626  
H173     H      0.042300000000     0.164810000000     0.572300000000     0.0325754  
H174     H      0.035230000000     0.324190000000     0.484770000000     0.0527973  
H175     H      0.921000000000     0.184170000000     0.495530000000     0.0496128  
H176     H      0.028510000000     0.379200000000     0.549690000000     0.0320681  
H177     H      0.957020000000     0.318530000000     0.436820000000     0.0499871  
H178     H      0.963730000000     0.196500000000     0.572030000000     0.0506726  
H179     H      0.967600000000     0.133810000000     0.448940000000     0.0253301  
H180     H      0.902980000000     0.345090000000     0.524150000000     0.0258401  
N1       N      0.874080000000     0.508720000000     0.014140000000    -0.192091   
N2       N      0.636510000000     0.528760000000     0.005860000000    -0.188727   
N3       N      0.138670000000     0.525720000000     0.979990000000    -0.192185   
N4       N      0.373170000000     0.574860000000     0.009270000000    -0.188473   
N5       N      0.528450000000     0.683220000000     0.029310000000    -0.192197   
N6       N      0.548440000000     0.922060000000     0.057670000000    -0.1896     
N7       N      0.475590000000     0.418480000000     0.982710000000    -0.192126   
N8       N      0.490700000000     0.182160000000     0.996330000000    -0.188848   
N9       N      0.540740000000     0.002350000000     0.660110000000    -0.191373   
N10      N      0.522260000000     0.025050000000     0.894430000000    -0.187937   
N11      N      0.513850000000     0.078180000000     0.157360000000    -0.19154    
N12      N      0.544720000000     0.032880000000     0.394060000000    -0.188648   
N13      N      0.968650000000     0.527260000000     0.631720000000    -0.192225   
N14      N      0.997230000000     0.506300000000     0.865010000000    -0.189163   
N15      N      0.020000000000     0.530170000000     0.130230000000    -0.192182   
N16      N      0.977410000000     0.506460000000     0.365500000000    -0.188538   
N17      N      0.405640000000     0.025450000000     0.524100000000    -0.191669   
N18      N      0.167670000000     0.042640000000     0.503450000000    -0.188377   
N19      N      0.909660000000     0.985330000000     0.546760000000    -0.191952   
N20      N      0.672720000000     0.009880000000     0.528410000000    -0.188772   
N21      N      0.984390000000     0.654710000000     0.490790000000    -0.191389   
N22      N      0.064620000000     0.879640000000     0.541930000000    -0.188982   
N23      N      0.011080000000     0.146260000000     0.507130000000    -0.191465   
N24      N      0.964720000000     0.382000000000     0.511820000000    -0.188435   
O1       O      0.017460000000     0.070820000000     0.479090000000    -0.553532   
O2       O      0.050600000000     0.942530000000     0.495190000000    -0.558261   
O3       O      0.971510000000     0.990820000000     0.498030000000    -0.555425   
O4       O      0.096680000000     0.021280000000     0.476740000000    -0.555634   
O5       O      0.106870000000     0.031320000000     0.552020000000    -0.559509   
O6       O      0.980390000000     0.008760000000     0.572010000000    -0.561098   
O7       O      0.054850000000     0.954060000000     0.570870000000    -0.556489   
O8       O      0.031960000000     0.084390000000     0.553070000000    -0.561301   
O9       O      0.931560000000     0.453870000000     0.497310000000    -0.553147   
O10      O      0.940640000000     0.587750000000     0.497500000000    -0.551098   
O11      O      0.938350000000     0.520580000000     0.432210000000    -0.559054   
O12      O      0.933270000000     0.520780000000     0.562030000000    -0.558589   
O13      O      0.009580000000     0.525830000000     0.564470000000    -0.557305   
O14      O      0.013270000000     0.505250000000     0.435610000000    -0.556538   
O15      O      0.016530000000     0.581270000000     0.490250000000    -0.560185   
O16      O      0.006890000000     0.449870000000     0.510060000000    -0.560131   
O17      O      0.535090000000     0.971240000000     0.587430000000    -0.554327   
O18      O      0.537890000000     0.986480000000     0.457890000000    -0.559617   
O19      O      0.601950000000     0.974870000000     0.522850000000    -0.55689    
O20      O      0.472120000000     0.982780000000     0.520900000000    -0.56061    
O21      O      0.476490000000     0.060510000000     0.531030000000    -0.555961   
O22      O      0.606440000000     0.052610000000     0.533040000000    -0.56045    
O23      O      0.543920000000     0.064290000000     0.466730000000    -0.556644   
O24      O      0.541090000000     0.049060000000     0.596100000000    -0.559786   
O25      O      0.467450000000     0.106930000000     0.013220000000    -0.555647   
O26      O      0.495860000000     0.979640000000     0.041880000000    -0.558676   
O27      O      0.479470000000     0.056900000000     0.090010000000    -0.562867   
O28      O      0.483630000000     0.028090000000     0.963110000000    -0.557131   
O29      O      0.557890000000     0.046840000000     0.961290000000    -0.558159   
O30      O      0.553900000000     0.074770000000     0.089030000000    -0.553464   
O31      O      0.570490000000     0.996770000000     0.038420000000    -0.560688   
O32      O      0.542230000000     0.123600000000     0.010410000000    -0.563192   
O33      O      0.001960000000     0.472800000000     0.936220000000    -0.559471   
O34      O      0.016380000000     0.484590000000     0.065230000000    -0.558598   
O35      O      0.944620000000     0.474270000000     0.007230000000    -0.56038    
O36      O      0.073590000000     0.482880000000     0.993810000000    -0.560631   
O37      O      0.068140000000     0.560890000000     0.986400000000    -0.558741   
O38      O      0.939190000000     0.552570000000     0.002910000000    -0.558163   
O39      O      0.010300000000     0.562650000000     0.059000000000    -0.56071    
O40      O      0.997630000000     0.551080000000     0.930160000000    -0.561121   
O41      O      0.491740000000     0.492940000000     0.957610000000    -0.560133   
O42      O      0.520460000000     0.620890000000     0.980060000000    -0.559739   
O43      O      0.569080000000     0.541770000000     0.967790000000    -0.557356   
O44      O      0.441890000000     0.571810000000     0.970310000000    -0.5529     
O45      O      0.439810000000     0.553760000000     0.044760000000    -0.564922   
O46      O      0.568070000000     0.533950000000     0.044030000000    -0.560143   
O47      O      0.513260000000     0.608640000000     0.055360000000    -0.559602   
O48      O      0.492470000000     0.478590000000     0.032910000000    -0.557345   
S1       S      0.845450000000     0.530990000000     0.093180000000    -0.0430167  
S2       S      0.169420000000     0.549660000000     0.902120000000    -0.0419288  
S3       S      0.459110000000     0.727380000000     0.058960000000    -0.0404108  
S4       S      0.432300000000     0.401090000000     0.908990000000    -0.035566   
S5       S      0.617900000000     0.020300000000     0.696160000000    -0.0420664  
S6       S      0.443520000000     0.108700000000     0.199590000000    -0.0391061  
S7       S      0.896170000000     0.549300000000     0.675050000000    -0.0362891  
S8       S      0.048570000000     0.604910000000     0.168620000000    -0.036983   
S9       S      0.365630000000     0.050500000000     0.597260000000    -0.0407747  
S10      S      0.881710000000     0.955560000000     0.624050000000    -0.0374753  
S11      S      0.921000000000     0.714490000000     0.477800000000    -0.0363411  
S12      S      0.022930000000     0.183080000000     0.428690000000    -0.0356848  
V1       V      0.033640000000     0.005950000000     0.484200000000     1.3812     
V2       V      0.044010000000     0.020010000000     0.565010000000     1.39735    
V3       V      0.932730000000     0.521020000000     0.497050000000     1.38428    
V4       V      0.014770000000     0.515340000000     0.500160000000     1.38952    
V5       V      0.536630000000     0.975710000000     0.522070000000     1.38978    
V6       V      0.541920000000     0.059750000000     0.531980000000     1.39115    
V7       V      0.478610000000     0.042240000000     0.026880000000     1.39228    
V8       V      0.559120000000     0.061120000000     0.024880000000     1.39004    
V9       V      0.009330000000     0.475520000000     0.000920000000     1.39358    
V10      V      0.003500000000     0.559920000000     0.994390000000     1.39756    
V11      V      0.505800000000     0.557420000000     0.965890000000     1.38875    
V12      V      0.503550000000     0.543060000000     0.047280000000     1.39775    


