data_structure

_audit_creation_method RASPA-1.0
_audit_creation_date 2023-5-25
_audit_author_name 'Poobodin Mano'

_cell_length_a    29.1042
_cell_length_b    29.1602
_cell_length_c    29.1944
_cell_angle_alpha 90
_cell_angle_beta  89.9998
_cell_angle_gamma 90
_cell_volume      24776.8

_symmetry_cell_setting          triclinic
_symmetry_space_group_name_Hall 'P 1'
_symmetry_space_group_name_H-M  'P 1'
_symmetry_Int_Tables_number     1

_symmetry_equiv_pos_as_xyz 'x,y,z'

loop_
_atom_site_label
_atom_site_type_symbol
_atom_site_fract_x
_atom_site_fract_y
_atom_site_fract_z
_atom_site_charge
C1       C      0.028270000000     0.095850000000     0.502970000000     0.475523   
C2       C      0.024450000000     0.923160000000     0.521590000000     0.476484   
C3       C      0.940690000000     0.011040000000     0.497120000000     0.476152   
C4       C      0.112010000000     0.006560000000     0.527320000000     0.475482   
C5       C      0.035790000000     0.425400000000     0.513810000000     0.47648    
C6       C      0.016140000000     0.597600000000     0.501540000000     0.476854   
C7       C      0.020420000000     0.504870000000     0.421220000000     0.474546   
C8       C      0.031630000000     0.519770000000     0.593740000000     0.477398   
C9       C      0.532760000000     0.986640000000     0.604790000000     0.476305   
C10      C      0.524960000000     0.997410000000     0.431930000000     0.478232   
C11      C      0.615380000000     0.987670000000     0.514480000000     0.474906   
C12      C      0.441730000000     0.997130000000     0.522820000000     0.477311   
C13      C      0.526510000000     0.104890000000     0.016470000000     0.476981   
C14      C      0.523080000000     0.931200000000     0.014800000000     0.47624    
C15      C      0.533600000000     0.018800000000     0.102090000000     0.475349   
C16      C      0.516430000000     0.018850000000     0.929530000000     0.478676   
C17      C      0.996490000000     0.524380000000     0.921150000000     0.475094   
C18      C      0.980910000000     0.532540000000     0.093890000000     0.477227   
C19      C      0.902080000000     0.529090000000     0.000630000000     0.476955   
C20      C      0.075560000000     0.528230000000     0.014810000000     0.476448   
C21      C      0.487120000000     0.429500000000     0.002620000000     0.474304   
C22      C      0.488380000000     0.601690000000     0.023750000000     0.473233   
C23      C      0.573570000000     0.515900000000     0.998730000000     0.473866   
C24      C      0.402200000000     0.513530000000     0.027130000000     0.473535   
C25      C      0.639310000000     0.534750000000     0.948670000000     0.0179327  
C26      C      0.828260000000     0.490630000000     0.016910000000     0.0173352  
C27      C      0.830480000000     0.571270000000     0.983120000000     0.0376668  
C28      C      0.788070000000     0.478750000000     0.985600000000    -0.10337    
C29      C      0.684750000000     0.559280000000     0.959210000000    -0.105381   
C30      C      0.789520000000     0.558980000000     0.951850000000    -0.107891   
C31      C      0.716200000000     0.527460000000     0.985550000000     0.0231664  
C32      C      0.761170000000     0.521530000000     0.974030000000     0.0228107  
C33      C      0.649590000000     0.483850000000     0.018050000000     0.0175143  
C34      C      0.695460000000     0.506920000000     0.028520000000    -0.104747   
C35      C      0.814630000000     0.597260000000     0.023420000000     0.04248    
C36      C      0.335710000000     0.525830000000     0.078060000000     0.01836    
C37      C      0.149110000000     0.488790000000     0.000250000000     0.0181225  
C38      C      0.147190000000     0.568800000000     0.035540000000     0.037475   
C39      C      0.186840000000     0.474920000000     0.033690000000    -0.104022   
C40      C      0.290310000000     0.551070000000     0.069130000000    -0.105071   
C41      C      0.185380000000     0.554500000000     0.069410000000    -0.107635   
C42      C      0.259530000000     0.521730000000     0.039380000000     0.0222753  
C43      C      0.213970000000     0.516580000000     0.048370000000     0.0224325  
C44      C      0.327320000000     0.482260000000     0.003660000000     0.0168849  
C45      C      0.280860000000     0.504960000000     0.995070000000    -0.103308   
C46      C      0.166790000000     0.594670000000     0.996840000000     0.0406781  
C47      C      0.512660000000     0.669430000000     0.068580000000     0.0173588  
C48      C      0.480550000000     0.860760000000     0.994830000000     0.0191434  
C49      C      0.563710000000     0.857000000000     0.021420000000     0.0379786  
C50      C      0.469080000000     0.818570000000     0.023470000000    -0.104855   
C51      C      0.540860000000     0.710860000000     0.052370000000    -0.104057   
C52      C      0.552360000000     0.814210000000     0.050440000000    -0.108323   
C53      C      0.510620000000     0.742780000000     0.024680000000     0.0199312  
C54      C      0.511330000000     0.789130000000     0.030550000000     0.0241425  
C55      C      0.458760000000     0.678010000000     0.001430000000     0.0166336  
C56      C      0.485100000000     0.720330000000     0.985290000000    -0.102604   
C57      C      0.584930000000     0.843520000000     0.977610000000     0.0402863  
C58      C      0.565500000000     0.177810000000     0.997320000000     0.0189862  
C59      C      0.467120000000     0.353160000000     0.033220000000     0.0185134  
C60      C      0.502580000000     0.361740000000     0.954060000000     0.0374328  
C61      C      0.499990000000     0.314030000000     0.044090000000    -0.103506   
C62      C      0.546850000000     0.217120000000     0.967440000000    -0.106456   
C63      C      0.535680000000     0.321620000000     0.964420000000    -0.107231   
C64      C      0.511770000000     0.244240000000     0.994570000000     0.0236234  
C65      C      0.515020000000     0.290380000000     0.000430000000     0.0224341  
C66      C      0.492080000000     0.177260000000     0.043640000000     0.019361   
C67      C      0.472900000000     0.216210000000     0.014640000000    -0.105319   
C68      C      0.462940000000     0.345620000000     0.927120000000     0.0403673  
C69      C      0.560990000000     0.018580000000     0.677880000000     0.019095   
C70      C      0.469450000000     0.004240000000     0.860510000000     0.0187869  
C71      C      0.548550000000     0.040940000000     0.854460000000     0.0390068  
C72      C      0.480490000000     0.972450000000     0.819970000000    -0.105744   
C73      C      0.530420000000     0.037680000000     0.715620000000    -0.104344   
C74      C      0.559330000000     0.010480000000     0.813170000000    -0.107948   
C75      C      0.510080000000     0.998680000000     0.743210000000     0.0201674  
C76      C      0.515730000000     0.995100000000     0.789310000000     0.0250656  
C77      C      0.515040000000     0.945160000000     0.676710000000     0.0166063  
C78      C      0.484010000000     0.963210000000     0.715480000000    -0.103983   
C79      C      0.533810000000     0.086720000000     0.839060000000     0.0334837  
C80      C      0.505420000000     0.048730000000     0.175820000000     0.0178876  
C81      C      0.538570000000     0.960050000000     0.357490000000     0.0189771  
C82      C      0.502650000000     0.039560000000     0.361690000000     0.0368     
C83      C      0.569790000000     0.975460000000     0.318210000000    -0.105477   
C84      C      0.496050000000     0.026350000000     0.222250000000    -0.104352   
C85      C      0.530800000000     0.053760000000     0.319490000000    -0.106575   
C86      C      0.540030000000     0.010350000000     0.245130000000     0.0203765  
C87      C      0.545520000000     0.012560000000     0.291390000000     0.0232984  
C88      C      0.581730000000     0.007880000000     0.170620000000     0.0187288  
C89      C      0.571820000000     0.982180000000     0.215250000000    -0.104513   
C90      C      0.455510000000     0.027780000000     0.347730000000     0.0385074  
C91      C      0.981580000000     0.558460000000     0.845090000000     0.0184132  
C92      C      0.076180000000     0.514320000000     0.665440000000     0.0198211  
C93      C      0.998860000000     0.554800000000     0.663180000000     0.0381263  
C94      C      0.063660000000     0.491850000000     0.711320000000    -0.105697   
C95      C      0.015010000000     0.570860000000     0.806720000000    -0.104971   
C96      C      0.987210000000     0.535240000000     0.710510000000    -0.106845   
C97      C      0.032620000000     0.528020000000     0.783230000000     0.0210103  
C98      C      0.029890000000     0.521730000000     0.737100000000     0.0245986  
C99      C      0.018820000000     0.480320000000     0.852320000000     0.0179672  
C100     C      0.053850000000     0.492890000000     0.814960000000    -0.105317   
C101     C      0.015130000000     0.602420000000     0.667630000000     0.0338439  
C102     C      0.979440000000     0.477950000000     0.351660000000     0.0171982  
C103     C      0.989120000000     0.576190000000     0.165920000000     0.0184745  
C104     C      0.952360000000     0.497420000000     0.165680000000     0.0376617  
C105     C      0.018610000000     0.563270000000     0.207430000000    -0.104179   
C106     C      0.959800000000     0.506720000000     0.312400000000    -0.103514   
C107     C      0.978860000000     0.484810000000     0.209370000000    -0.106251   
C108     C      0.997740000000     0.526220000000     0.282420000000     0.0190957  
C109     C      0.994780000000     0.526790000000     0.235810000000     0.0231817  
C110     C      0.055010000000     0.519670000000     0.345310000000     0.0175412  
C111     C      0.035540000000     0.551120000000     0.308000000000    -0.104026   
C112     C      0.905320000000     0.511820000000     0.177420000000     0.0361292  
C113     C      0.185140000000     0.970260000000     0.505880000000     0.0188288  
C114     C      0.372440000000     0.041890000000     0.542820000000     0.0177369  
C115     C      0.365960000000     0.963930000000     0.503670000000     0.0369104  
C116     C      0.331250000000     0.030230000000     0.573610000000    -0.10515    
C117     C      0.232080000000     0.990910000000     0.495820000000    -0.104805   
C118     C      0.323750000000     0.953440000000     0.533270000000    -0.106945   
C119     C      0.255150000000     0.006320000000     0.539700000000     0.0214249  
C120     C      0.300180000000     0.997110000000     0.548610000000     0.0234115  
C121     C      0.179000000000     0.016850000000     0.578530000000     0.0174597  
C122     C      0.226600000000     0.038030000000     0.569490000000    -0.104486   
C123     C      0.351540000000     0.978980000000     0.457740000000     0.0382094  
C124     C      0.686490000000     0.944240000000     0.496880000000     0.0166025  
C125     C      0.864180000000     0.039270000000     0.519990000000     0.0194026  
C126     C      0.874040000000     0.990590000000     0.448410000000     0.0374036  
C127     C      0.823360000000     0.010230000000     0.534740000000    -0.104249   
C128     C      0.725480000000     0.957260000000     0.463560000000    -0.104428   
C129     C      0.831390000000     0.961940000000     0.462110000000    -0.10758    
C130     C      0.754470000000     0.994850000000     0.484740000000     0.0212984  
C131     C      0.800150000000     0.989600000000     0.493180000000     0.0234871  
C132     C      0.690140000000     0.023150000000     0.532790000000     0.0182844  
C133     C      0.727870000000     0.036900000000     0.499410000000    -0.103912   
C134     C      0.861430000000     0.025690000000     0.414370000000     0.0394484  
C135     C      0.967700000000     0.666350000000     0.513740000000     0.0187033  
C136     C      0.054050000000     0.848360000000     0.495680000000     0.0190668  
C137     C      0.002920000000     0.854150000000     0.566160000000     0.0374159  
C138     C      0.027150000000     0.806820000000     0.479190000000    -0.103969   
C139     C      0.977870000000     0.705350000000     0.547780000000    -0.107273   
C140     C      0.976540000000     0.810850000000     0.550470000000    -0.107336   
C141     C      0.014330000000     0.736410000000     0.527610000000     0.0244809  
C142     C      0.006650000000     0.781730000000     0.519630000000     0.0229848  
C143     C      0.047390000000     0.673590000000     0.480190000000     0.0194901  
C144     C      0.058240000000     0.712330000000     0.513540000000    -0.105481   
C145     C      0.037430000000     0.842170000000     0.601080000000     0.0416384  
C146     C      0.999670000000     0.170660000000     0.530110000000     0.0188164  
C147     C      0.083300000000     0.356220000000     0.500520000000     0.0176     
C148     C      0.006010000000     0.350630000000     0.540790000000     0.0375459  
C149     C      0.072020000000     0.313490000000     0.471760000000    -0.104794   
C150     C      0.027320000000     0.212220000000     0.545310000000    -0.104696   
C151     C      0.995020000000     0.307450000000     0.513020000000    -0.106682   
C152     C      0.045430000000     0.237580000000     0.503840000000     0.0207224  
C153     C      0.038510000000     0.283370000000     0.497550000000     0.0233958  
C154     C      0.046370000000     0.165320000000     0.457340000000     0.0166251  
C155     C      0.073640000000     0.208490000000     0.471180000000    -0.104228   
C156     C      0.022900000000     0.337980000000     0.586630000000     0.0343852  
H1       H      0.699650000000     0.569740000000     0.925790000000     0.0446982  
H2       H      0.814350000000     0.500450000000     0.051010000000     0.0330038  
H3       H      0.656540000000     0.452030000000     0.998230000000     0.0241833  
H4       H      0.718210000000     0.482390000000     0.046520000000     0.0465618  
H5       H      0.766930000000     0.450970000000     0.000690000000     0.043647   
H6       H      0.769740000000     0.590740000000     0.944690000000     0.0483859  
H7       H      0.615400000000     0.559930000000     0.932830000000     0.0337896  
H8       H      0.849480000000     0.459360000000     0.022060000000     0.0350508  
H9       H      0.689230000000     0.535340000000     0.053130000000     0.057485   
H10      H      0.802770000000     0.546170000000     0.918500000000     0.0503181  
H11      H      0.633230000000     0.473350000000     0.050830000000     0.0340101  
H12      H      0.678090000000     0.590590000000     0.979890000000     0.0544671  
H13      H      0.802110000000     0.464440000000     0.953190000000     0.0514778  
H14      H      0.853540000000     0.594260000000     0.963190000000     0.0324453  
H15      H      0.645890000000     0.507180000000     0.923160000000     0.0272909  
H16      H      0.274420000000     0.558220000000     0.103010000000     0.0436152  
H17      H      0.165520000000     0.499050000000     0.967400000000     0.0291646  
H18      H      0.321080000000     0.448360000000     0.019990000000     0.0256695  
H19      H      0.258720000000     0.481080000000     0.975460000000     0.046421   
H20      H      0.208430000000     0.447230000000     0.019000000000     0.0440849  
H21      H      0.205830000000     0.585270000000     0.078790000000     0.0473343  
H22      H      0.359250000000     0.549250000000     0.096890000000     0.0315354  
H23      H      0.127250000000     0.458430000000     0.992830000000     0.033286   
H24      H      0.286270000000     0.535260000000     0.972600000000     0.0576469  
H25      H      0.169320000000     0.541400000000     0.101390000000     0.0493938  
H26      H      0.344390000000     0.475640000000     0.970230000000     0.036234   
H27      H      0.297130000000     0.584230000000     0.051620000000     0.0535675  
H28      H      0.170380000000     0.459940000000     0.064630000000     0.0516119  
H29      H      0.123520000000     0.592300000000     0.054110000000     0.0308704  
H30      H      0.328830000000     0.495590000000     0.100260000000     0.0271411  
H31      H      0.554790000000     0.727790000000     0.083500000000     0.0443931  
H32      H      0.487270000000     0.849420000000     0.959080000000     0.0290174  
H33      H      0.429190000000     0.689720000000     0.022540000000     0.0253085  
H34      H      0.461390000000     0.743590000000     0.966850000000     0.045158   
H35      H      0.439640000000     0.800170000000     0.008000000000     0.044416   
H36      H      0.583580000000     0.792290000000     0.052090000000     0.0488479  
H37      H      0.536260000000     0.644930000000     0.085880000000     0.0340994  
H38      H      0.449950000000     0.883540000000     0.993720000000     0.033524   
H39      H      0.511010000000     0.709270000000     0.959590000000     0.0552515  
H40      H      0.543980000000     0.824990000000     0.085990000000     0.0505281  
H41      H      0.444450000000     0.659850000000     0.971150000000     0.0349237  
H42      H      0.570110000000     0.699120000000     0.030880000000     0.0533338  
H43      H      0.457050000000     0.830240000000     0.057690000000     0.0525706  
H44      H      0.589620000000     0.877360000000     0.040690000000     0.0315337  
H45      H      0.487040000000     0.681270000000     0.094270000000     0.0270536  
H46      H      0.576620000000     0.238350000000     0.956660000000     0.045572   
H47      H      0.434270000000     0.338160000000     0.020790000000     0.0293373  
H48      H      0.508250000000     0.192350000000     0.074710000000     0.0234294  
H49      H      0.447830000000     0.236580000000     0.034720000000     0.0459092  
H50      H      0.484390000000     0.290730000000     0.069730000000     0.0436635  
H51      H      0.543240000000     0.303340000000     0.931850000000     0.0492972  
H52      H      0.588040000000     0.155740000000     0.975860000000     0.0336433  
H53      H      0.459210000000     0.372170000000     0.065270000000     0.0331135  
H54      H      0.453090000000     0.201100000000     0.985790000000     0.0582694  
H55      H      0.568670000000     0.335530000000     0.977670000000     0.049937   
H56      H      0.463350000000     0.155060000000     0.055380000000     0.032678   
H57      H      0.530260000000     0.202830000000     0.936250000000     0.0580655  
H58      H      0.531050000000     0.328620000000     0.060780000000     0.0518934  
H59      H      0.521560000000     0.386880000000     0.932510000000     0.0321227  
H60      H      0.586840000000     0.192710000000     0.025220000000     0.0268196  
H61      H      0.549470000000     0.063210000000     0.736340000000     0.0503416  
H62      H      0.450110000000     0.034470000000     0.847550000000     0.0331217  
H63      H      0.542960000000     0.924150000000     0.692110000000     0.0278853  
H64      H      0.473190000000     0.933300000000     0.736380000000     0.0439323  
H65      H      0.447710000000     0.965570000000     0.801730000000     0.0446859  
H66      H      0.584790000000     0.027190000000     0.790350000000     0.0479172  
H67      H      0.573810000000     0.047250000000     0.656270000000     0.0331612  
H68      H      0.446660000000     0.985460000000     0.884680000000     0.0327234  
H69      H      0.452770000000     0.979310000000     0.700600000000     0.0504577  
H70      H      0.576870000000     0.979130000000     0.825990000000     0.0552541  
H71      H      0.494300000000     0.922500000000     0.654080000000     0.0327301  
H72      H      0.501670000000     0.056870000000     0.699430000000     0.0564233  
H73      H      0.494390000000     0.939360000000     0.832820000000     0.0521091  
H74      H      0.580970000000     0.045870000000     0.873970000000     0.0332471  
H75      H      0.591410000000     0.002170000000     0.694120000000     0.0244259  
H76      H      0.475490000000     0.050280000000     0.243380000000     0.0501914  
H77      H      0.507790000000     0.942730000000     0.342940000000     0.0334311  
H78      H      0.602470000000     0.038960000000     0.178480000000     0.0279357  
H79      H      0.605480000000     0.976060000000     0.232180000000     0.0438026  
H80      H      0.577530000000     0.944640000000     0.297270000000     0.0439855  
H81      H      0.512620000000     0.080530000000     0.299460000000     0.0475113  
H82      H      0.472250000000     0.053790000000     0.157620000000     0.0337098  
H83      H      0.557640000000     0.934300000000     0.378220000000     0.0329301  
H84      H      0.555600000000     0.948520000000     0.207630000000     0.0510829  
H85      H      0.562670000000     0.070750000000     0.331890000000     0.0518574  
H86      H      0.602610000000     0.985250000000     0.148070000000     0.0322224  
H87      H      0.474060000000     0.995700000000     0.216620000000     0.0568101  
H88      H      0.602630000000     0.989070000000     0.332120000000     0.05057    
H89      H      0.500100000000     0.069760000000     0.384790000000     0.0341801  
H90      H      0.520210000000     0.083340000000     0.182080000000     0.0243964  
H91      H      0.999010000000     0.595920000000     0.783040000000     0.0499852  
H92      H      0.096840000000     0.545700000000     0.672210000000     0.0338574  
H93      H      0.989870000000     0.461270000000     0.836270000000     0.0280052  
H94      H      0.063560000000     0.460750000000     0.797020000000     0.0451766  
H95      H      0.096130000000     0.487250000000     0.730840000000     0.0463818  
H96      H      0.964070000000     0.559000000000     0.729170000000     0.0479615  
H97      H      0.972780000000     0.589970000000     0.864660000000     0.0346312  
H98      H      0.098030000000     0.490110000000     0.645610000000     0.0336254  
H99      H      0.085230000000     0.507560000000     0.830960000000     0.0532371  
H100     H      0.966700000000     0.503490000000     0.705340000000     0.0532992  
H101     H      0.035800000000     0.457010000000     0.877300000000     0.0326929  
H102     H      0.044950000000     0.588810000000     0.822150000000     0.0576243  
H103     H      0.048110000000     0.457570000000     0.705200000000     0.0543677  
H104     H      0.966500000000     0.556150000000     0.642970000000     0.0322829  
H105     H      0.949290000000     0.545690000000     0.829200000000     0.0243936  
H106     H      0.933960000000     0.486290000000     0.293510000000     0.0477255  
H107     H      0.957720000000     0.594200000000     0.178110000000     0.0346846  
H108     H      0.072700000000     0.490240000000     0.328650000000     0.0260605  
H109     H      0.064630000000     0.560740000000     0.285340000000     0.0427006  
H110     H      0.024140000000     0.595210000000     0.227480000000     0.0440677  
H111     H      0.958590000000     0.460120000000     0.229970000000     0.0474535  
H112     H      0.951310000000     0.468890000000     0.375760000000     0.0337682  
H113     H      0.008950000000     0.600620000000     0.144350000000     0.0335541  
H114     H      0.021410000000     0.582850000000     0.323720000000     0.0509095  
H115     H      0.010240000000     0.465730000000     0.198940000000     0.0516518  
H116     H      0.081130000000     0.539270000000     0.365030000000     0.0330541  
H117     H      0.940700000000     0.536090000000     0.327470000000     0.0546951  
H118     H      0.052530000000     0.550200000000     0.195760000000     0.0491139  
H119     H      0.949120000000     0.465870000000     0.144550000000     0.0327618  
H120     H      0.992790000000     0.445370000000     0.336970000000     0.0244969  
H121     H      0.252410000000     0.966280000000     0.475300000000     0.0517571  
H122     H      0.360150000000     0.062890000000     0.513450000000     0.0336398  
H123     H      0.183120000000     0.987120000000     0.602050000000     0.0301171  
H124     H      0.242820000000     0.043930000000     0.603420000000     0.0442485  
H125     H      0.313950000000     0.062970000000     0.582440000000     0.0444533  
H126     H      0.300600000000     0.928500000000     0.516210000000     0.0476119  
H127     H      0.167680000000     0.962490000000     0.472910000000     0.0343086  
H128     H      0.396690000000     0.063400000000     0.562950000000     0.0337887  
H129     H      0.222610000000     0.071620000000     0.551950000000     0.051296   
H130     H      0.335850000000     0.935440000000     0.564610000000     0.0518998  
H131     H      0.157120000000     0.042770000000     0.596040000000     0.0327798  
H132     H      0.227300000000     0.021570000000     0.473690000000     0.0582629  
H133     H      0.343560000000     0.014160000000     0.605880000000     0.0500488  
H134     H      0.385230000000     0.931340000000     0.499110000000     0.034598   
H135     H      0.190320000000     0.937050000000     0.523920000000     0.0260363  
H136     H      0.745510000000     0.925720000000     0.456190000000     0.0435505  
H137     H      0.850970000000     0.069850000000     0.501420000000     0.0290831  
H138     H      0.706530000000     0.010990000000     0.564990000000     0.0239218  
H139     H      0.749590000000     0.064440000000     0.514140000000     0.0452822  
H140     H      0.800150000000     0.030580000000     0.556930000000     0.044022   
H141     H      0.813700000000     0.950340000000     0.430400000000     0.047901   
H142     H      0.662820000000     0.920070000000     0.479230000000     0.0319381  
H143     H      0.882350000000     0.052050000000     0.550950000000     0.0328522  
H144     H      0.711540000000     0.052070000000     0.468490000000     0.0552398  
H145     H      0.842810000000     0.930790000000     0.480880000000     0.0496909  
H146     H      0.669350000000     0.053910000000     0.541550000000     0.0328591  
H147     H      0.710550000000     0.969860000000     0.430860000000     0.0512867  
H148     H      0.836180000000     0.981670000000     0.556490000000     0.0529915  
H149     H      0.898990000000     0.966990000000     0.431750000000     0.0310671  
H150     H      0.701690000000     0.926040000000     0.526750000000     0.0274356  
H151     H      0.945030000000     0.723430000000     0.554620000000     0.0455981  
H152     H      0.084900000000     0.836050000000     0.514520000000     0.0293356  
H153     H      0.035090000000     0.689010000000     0.447570000000     0.0233405  
H154     H      0.084670000000     0.735540000000     0.499030000000     0.0461901  
H155     H      0.049000000000     0.785140000000     0.456880000000     0.0438554  
H156     H      0.964620000000     0.792010000000     0.581370000000     0.0495585  
H157     H      0.943550000000     0.641850000000     0.530210000000     0.0336572  
H158     H      0.066640000000     0.867820000000     0.465450000000     0.0332542  
H159     H      0.073970000000     0.697190000000     0.544780000000     0.0598867  
H160     H      0.945520000000     0.821410000000     0.530920000000     0.0496631  
H161     H      0.079420000000     0.654350000000     0.472420000000     0.0328186  
H162     H      0.990580000000     0.690730000000     0.580580000000     0.0605364  
H163     H      0.998490000000     0.818950000000     0.457120000000     0.0524396  
H164     H      0.977680000000     0.877620000000     0.582590000000     0.0314308  
H165     H      0.950280000000     0.681110000000     0.483190000000     0.0265567  
H166     H      0.006720000000     0.233570000000     0.569010000000     0.0500793  
H167     H      0.104300000000     0.345540000000     0.530510000000     0.0325234  
H168     H      0.017870000000     0.175780000000     0.434190000000     0.0290403  
H169     H      0.082360000000     0.227090000000     0.439160000000     0.0437931  
H170     H      0.105000000000     0.295740000000     0.464630000000     0.0441111  
H171     H      0.970410000000     0.285210000000     0.531670000000     0.0471923  
H172     H      0.988390000000     0.151290000000     0.560910000000     0.0340763  
H173     H      0.104740000000     0.379590000000     0.479330000000     0.0334276  
H174     H      0.106170000000     0.198250000000     0.488290000000     0.0509091  
H175     H      0.976270000000     0.318270000000     0.481640000000     0.0522223  
H176     H      0.069490000000     0.142080000000     0.437810000000     0.0334453  
H177     H      0.057240000000     0.200090000000     0.565650000000     0.0565972  
H178     H      0.056500000000     0.324000000000     0.438590000000     0.0498941  
H179     H      0.973320000000     0.369630000000     0.545930000000     0.0334818  
H180     H      0.968130000000     0.182950000000     0.512420000000     0.0253642  
N1       N      0.855140000000     0.529520000000     0.998380000000    -0.187702   
N2       N      0.619720000000     0.513980000000     0.990410000000    -0.18806    
N3       N      0.799900000000     0.620970000000     0.060590000000    -0.106935   
N4       N      0.122370000000     0.528050000000     0.018110000000    -0.18873    
N5       N      0.356090000000     0.510020000000     0.034660000000    -0.188042   
N6       N      0.184990000000     0.618270000000     0.961170000000    -0.109697   
N7       N      0.521890000000     0.884390000000     0.012460000000    -0.188843   
N8       N      0.488170000000     0.648160000000     0.029790000000    -0.187789   
N9       N      0.604280000000     0.831040000000     0.937230000000    -0.109996   
N10      N      0.486330000000     0.383030000000     0.997100000000    -0.188495   
N11      N      0.527340000000     0.151630000000     0.017900000000    -0.188877   
N12      N      0.426390000000     0.330660000000     0.902480000000    -0.108874   
N13      N      0.512060000000     0.020160000000     0.882980000000    -0.188698   
N14      N      0.535750000000     0.983710000000     0.651320000000    -0.189001   
N15      N      0.520130000000     0.128860000000     0.824880000000    -0.110388   
N16      N      0.523650000000     0.999790000000     0.385200000000    -0.188209   
N17      N      0.538550000000     0.021960000000     0.148460000000    -0.188723   
N18      N      0.412220000000     0.016830000000     0.334480000000    -0.103451   
N19      N      0.034420000000     0.527090000000     0.639850000000    -0.188377   
N20      N      0.000610000000     0.522000000000     0.874600000000    -0.188069   
N21      N      0.030180000000     0.646250000000     0.671650000000    -0.10939    
N22      N      0.975610000000     0.534710000000     0.140360000000    -0.188165   
N23      N      0.017630000000     0.502070000000     0.374550000000    -0.188386   
N24      N      0.862020000000     0.525190000000     0.188240000000    -0.107717   
N25      N      0.394830000000     0.999950000000     0.524900000000    -0.187887   
N26      N      0.157820000000     0.000800000000     0.535590000000    -0.187986   
N27      N      0.337980000000     0.992980000000     0.415560000000    -0.103631   
N28      N      0.894500000000     0.012930000000     0.489070000000    -0.18877    
N29      N      0.662250000000     0.985550000000     0.513440000000    -0.18843    
N30      N      0.849710000000     0.058090000000     0.383160000000    -0.110071   
N31      N      0.025780000000     0.876650000000     0.526880000000    -0.188907   
N32      N      0.010820000000     0.644050000000     0.499010000000    -0.188564   
N33      N      0.069300000000     0.831020000000     0.633090000000    -0.107239   
N34      N      0.040960000000     0.378870000000     0.517120000000    -0.188382   
N35      N      0.026640000000     0.142400000000     0.497890000000    -0.188036   
N36      N      0.038570000000     0.326280000000     0.628780000000    -0.111344   
O1       O      0.035370000000     0.069980000000     0.467970000000    -0.554181   
O2       O      0.032020000000     0.940540000000     0.481930000000    -0.560784   
O3       O      0.968710000000     0.005100000000     0.463590000000    -0.554445   
O4       O      0.097080000000     0.003310000000     0.486120000000    -0.560349   
O5       O      0.084110000000     0.012920000000     0.560900000000    -0.554026   
O6       O      0.955630000000     0.015790000000     0.538200000000    -0.560139   
O7       O      0.016850000000     0.949050000000     0.556420000000    -0.554424   
O8       O      0.021270000000     0.078350000000     0.542660000000    -0.560754   
O9       O      0.995690000000     0.443320000000     0.518070000000    -0.557912   
O10      O      0.980510000000     0.571790000000     0.504210000000    -0.558693   
O11      O      0.984190000000     0.499650000000     0.445910000000    -0.555055   
O12      O      0.992020000000     0.516070000000     0.574820000000    -0.557691   
O13      O      0.068520000000     0.518260000000     0.569560000000    -0.5544     
O14      O      0.059440000000     0.513000000000     0.439970000000    -0.560795   
O15      O      0.056700000000     0.580180000000     0.501530000000    -0.55691    
O16      O      0.071090000000     0.450830000000     0.506630000000    -0.557234   
O17      O      0.526620000000     0.950150000000     0.580900000000    -0.557933   
O18      O      0.526260000000     0.957960000000     0.451300000000    -0.560198   
O19      O      0.591640000000     0.950490000000     0.514340000000    -0.555686   
O20      O      0.461190000000     0.958070000000     0.516480000000    -0.555398   
O21      O      0.465920000000     0.033730000000     0.526780000000    -0.558488   
O22      O      0.595530000000     0.026940000000     0.516240000000    -0.560552   
O23      O      0.525090000000     0.034350000000     0.456010000000    -0.554817   
O24      O      0.536470000000     0.025940000000     0.585370000000    -0.560285   
O25      O      0.488010000000     0.083780000000     0.020430000000    -0.559083   
O26      O      0.485400000000     0.953780000000     0.018710000000    -0.559151   
O27      O      0.493230000000     0.019500000000     0.084310000000    -0.55742    
O28      O      0.480320000000     0.018540000000     0.954830000000    -0.556891   
O29      O      0.556680000000     0.018480000000     0.947500000000    -0.559476   
O30      O      0.569530000000     0.016630000000     0.076650000000    -0.560193   
O31      O      0.561790000000     0.952230000000     0.012110000000    -0.555363   
O32      O      0.564250000000     0.082520000000     0.011800000000    -0.557711   
O33      O      0.994940000000     0.487220000000     0.944680000000    -0.558772   
O34      O      0.982060000000     0.493330000000     0.073890000000    -0.558397   
O35      O      0.923510000000     0.490730000000     0.004140000000    -0.558113   
O36      O      0.053530000000     0.490070000000     0.014350000000    -0.559177   
O37      O      0.054100000000     0.566600000000     0.011830000000    -0.556098   
O38      O      0.924260000000     0.567160000000     0.000020000000    -0.555656   
O39      O      0.984180000000     0.569780000000     0.070590000000    -0.555333   
O40      O      0.994070000000     0.563690000000     0.940920000000    -0.554899   
O41      O      0.486380000000     0.455720000000     0.967270000000    -0.553228   
O42      O      0.477070000000     0.584550000000     0.984780000000    -0.554194   
O43      O      0.545860000000     0.525830000000     0.965950000000    -0.556501   
O44      O      0.417560000000     0.513760000000     0.985900000000    -0.554716   
O45      O      0.429870000000     0.515200000000     0.061370000000    -0.556069   
O46      O      0.558140000000     0.506600000000     0.038900000000    -0.556224   
O47      O      0.499530000000     0.575450000000     0.057280000000    -0.557034   
O48      O      0.488390000000     0.446590000000     0.043150000000    -0.557612   
V1       V      0.033690000000     0.004620000000     0.471860000000     1.39529    
V2       V      0.019070000000     0.014280000000     0.552560000000     1.39493    
V3       V      0.985020000000     0.507240000000     0.510860000000     1.39151    
V4       V      0.067030000000     0.515850000000     0.504310000000     1.39278    
V5       V      0.526210000000     0.951070000000     0.515680000000     1.39128    
V6       V      0.530880000000     0.033330000000     0.521140000000     1.39641    
V7       V      0.483690000000     0.018870000000     0.019880000000     1.39452    
V8       V      0.566110000000     0.017330000000     0.011740000000     1.39795    
V9       V      0.988500000000     0.487290000000     0.009410000000     1.3937     
V10      V      0.989210000000     0.569860000000     0.005660000000     1.39629    
V11      V      0.481180000000     0.520480000000     0.972820000000     1.38825    
V12      V      0.494550000000     0.510640000000     0.053340000000     1.38779    


