data_structure

_audit_creation_method RASPA-1.0
_audit_creation_date 2023-5-22
_audit_author_name 'Poobodin Mano'

_cell_length_a    29.0555
_cell_length_b    29.1088
_cell_length_c    29.3019
_cell_angle_alpha 90
_cell_angle_beta  89.9998
_cell_angle_gamma 89.9998
_cell_volume      24782.7

_symmetry_cell_setting          triclinic
_symmetry_space_group_name_Hall 'P 1'
_symmetry_space_group_name_H-M  'P 1'
_symmetry_Int_Tables_number     1

_symmetry_equiv_pos_as_xyz 'x,y,z'

loop_
_atom_site_label
_atom_site_type_symbol
_atom_site_fract_x
_atom_site_fract_y
_atom_site_fract_z
_atom_site_charge
C1       C      0.020960000000     0.107370000000     0.019320000000     0.474562   
C2       C      0.008030000000     0.934100000000     0.029180000000     0.475103   
C3       C      0.100200000000     0.015930000000     0.037510000000     0.475197   
C4       C      0.928310000000     0.026150000000     0.010320000000     0.474333   
C5       C      0.009290000000     0.103940000000     0.487140000000     0.474019   
C6       C      0.003350000000     0.932230000000     0.514520000000     0.474441   
C7       C      0.921030000000     0.019160000000     0.487150000000     0.474889   
C8       C      0.093070000000     0.017630000000     0.515050000000     0.474749   
C9       C      0.010640000000     0.503850000000     0.076960000000     0.473042   
C10      C      0.013670000000     0.537170000000     0.906970000000     0.473352   
C11      C      0.017980000000     0.605950000000     0.006340000000     0.474093   
C12      C      0.005770000000     0.435050000000     0.976380000000     0.474609   
C13      C      0.017990000000     0.532340000000     0.406880000000     0.473163   
C14      C      0.017690000000     0.505730000000     0.578070000000     0.473456   
C15      C      0.017400000000     0.605230000000     0.504180000000     0.474358   
C16      C      0.018710000000     0.432790000000     0.481240000000     0.473797   
C17      C      0.522870000000     0.995150000000     0.103590000000     0.475765   
C18      C      0.498430000000     0.996450000000     0.932420000000     0.475223   
C19      C      0.597700000000     0.999840000000     0.008230000000     0.473938   
C20      C      0.424770000000     0.991930000000     0.028190000000     0.474498   
C21      C      0.497170000000     0.994160000000     0.431610000000     0.4756     
C22      C      0.522750000000     0.996920000000     0.602600000000     0.475567   
C23      C      0.422970000000     0.996950000000     0.527300000000     0.474491   
C24      C      0.595890000000     0.994210000000     0.506230000000     0.474734   
C25      C      0.541710000000     0.040970000000     0.672550000000     0.0185755  
C26      C      0.478270000000     0.954390000000     0.861650000000     0.0185516  
C27      C      0.478090000000     0.039630000000     0.862340000000     0.0186738  
C28      C      0.506340000000     0.952500000000     0.817610000000    -0.10189    
C29      C      0.514420000000     0.042490000000     0.717170000000    -0.101879   
C30      C      0.505520000000     0.042250000000     0.817880000000    -0.101957   
C31      C      0.515560000000     0.997650000000     0.744430000000     0.0166355  
C32      C      0.506090000000     0.997450000000     0.790560000000     0.0166574  
C33      C      0.544980000000     0.955800000000     0.673300000000     0.0185733  
C34      C      0.517060000000     0.952750000000     0.717360000000    -0.101847   
C35      C      0.488780000000     0.036210000000     0.358460000000     0.0178633  
C36      C      0.542910000000     0.952530000000     0.174210000000     0.0168346  
C37      C      0.528400000000     0.037460000000     0.176890000000     0.0177426  
C38      C      0.511850000000     0.944960000000     0.215900000000    -0.102858   
C39      C      0.521970000000     0.031540000000     0.318420000000    -0.103056   
C40      C      0.494910000000     0.031080000000     0.216480000000    -0.102995   
C41      C      0.510710000000     0.988730000000     0.290800000000     0.0174279  
C42      C      0.507800000000     0.988720000000     0.244110000000     0.0173935  
C43      C      0.478280000000     0.950710000000     0.361160000000     0.0167631  
C44      C      0.508870000000     0.944710000000     0.318860000000    -0.102785   
C45      C      0.059660000000     0.486970000000     0.649500000000     0.017764   
C46      C      0.972540000000     0.558810000000     0.835900000000     0.0185016  
C47      C      0.057850000000     0.557300000000     0.837240000000     0.0179851  
C48      C      0.970420000000     0.530530000000     0.791940000000    -0.101477   
C49      C      0.061660000000     0.516070000000     0.693010000000    -0.101567   
C50      C      0.060390000000     0.528930000000     0.793340000000    -0.101546   
C51      C      0.016350000000     0.517810000000     0.719630000000     0.0162376  
C52      C      0.015830000000     0.528710000000     0.765490000000     0.0162426  
C53      C      0.974260000000     0.487820000000     0.648750000000     0.0185208  
C54      C      0.971830000000     0.517450000000     0.691760000000    -0.101493   
C55      C      0.060250000000     0.548670000000     0.335010000000     0.0177245  
C56      C      0.966450000000     0.487560000000     0.147680000000     0.0180202  
C57      C      0.051400000000     0.479110000000     0.147240000000     0.0180883  
C58      C      0.967350000000     0.514910000000     0.192360000000    -0.101287   
C59      C      0.059840000000     0.519930000000     0.291190000000    -0.10164    
C60      C      0.056920000000     0.507360000000     0.190910000000    -0.101573   
C61      C      0.014340000000     0.521780000000     0.264900000000     0.0162941  
C62      C      0.012680000000     0.511690000000     0.218860000000     0.0161138  
C63      C      0.974960000000     0.553150000000     0.336810000000     0.0185636  
C64      C      0.970190000000     0.524720000000     0.293170000000    -0.101565   
C65      C      0.350210000000     0.958900000000     0.548730000000     0.0175818  
C66      C      0.170690000000     0.037690000000     0.487720000000     0.0171543  
C67      C      0.158270000000     0.008480000000     0.568210000000     0.0179307  
C68      C      0.215170000000     0.009980000000     0.484400000000    -0.103013   
C69      C      0.306500000000     0.975740000000     0.573180000000    -0.104461   
C70      C      0.201590000000     0.978450000000     0.564640000000    -0.104446   
C71      C      0.279920000000     0.007030000000     0.541520000000     0.0189418  
C72      C      0.234760000000     0.000240000000     0.531320000000     0.0187432  
C73      C      0.350860000000     0.031090000000     0.500090000000     0.0170908  
C74      C      0.306940000000     0.047440000000     0.523380000000    -0.1034     
C75      C      0.667260000000     0.952930000000     0.484650000000     0.0163418  
C76      C      0.844440000000     0.047780000000     0.509980000000     0.0181064  
C77      C      0.853940000000     0.999870000000     0.438700000000     0.0169174  
C78      C      0.802560000000     0.019550000000     0.523750000000    -0.103229   
C79      C      0.705620000000     0.966900000000     0.451070000000    -0.103907   
C80      C      0.811600000000     0.970890000000     0.451660000000    -0.104042   
C81      C      0.734490000000     0.004530000000     0.472370000000     0.0185366  
C82      C      0.779970000000     0.998900000000     0.481900000000     0.0188945  
C83      C      0.670400000000     0.031880000000     0.521050000000     0.0176574  
C84      C      0.707470000000     0.046250000000     0.487260000000    -0.103277   
C85      C      0.981330000000     0.679270000000     0.485070000000     0.0174514  
C86      C      0.009780000000     0.865500000000     0.566090000000     0.0174662  
C87      C      0.976210000000     0.857220000000     0.486860000000     0.0181042  
C88      C      0.036840000000     0.820550000000     0.560090000000    -0.104263   
C89      C      0.964400000000     0.718280000000     0.515380000000    -0.102916   
C90      C      0.001050000000     0.811470000000     0.480760000000    -0.103842   
C91      C      0.004840000000     0.744420000000     0.534810000000     0.018051   
C92      C      0.011990000000     0.789820000000     0.526520000000     0.0192545  
C93      C      0.056060000000     0.676350000000     0.529820000000     0.0170743  
C94      C      0.038880000000     0.715290000000     0.561030000000    -0.104059   
C95      C      0.980290000000     0.180600000000     0.508320000000     0.0177145  
C96      C      0.061030000000     0.361720000000     0.462440000000     0.017128   
C97      C      0.982040000000     0.358850000000     0.499610000000     0.0170525  
C98      C      0.048990000000     0.319180000000     0.433750000000    -0.104349   
C99      C      0.004170000000     0.226550000000     0.516540000000    -0.104014   
C100     C      0.970460000000     0.316300000000     0.471550000000    -0.103132   
C101     C      0.022100000000     0.246460000000     0.472220000000     0.0192543  
C102     C      0.013940000000     0.290660000000     0.459280000000     0.018431   
C103     C      0.027270000000     0.169170000000     0.436390000000     0.0173693  
C104     C      0.052690000000     0.214580000000     0.445000000000    -0.104511   
C105     C      0.166490000000     0.998870000000     0.087770000000     0.0169877  
C106     C      0.349580000000     0.024970000000     0.007930000000     0.0178103  
C107     C      0.354550000000     0.950030000000     0.051840000000     0.0167806  
C108     C      0.310190000000     0.040580000000     0.038420000000    -0.103306   
C109     C      0.207750000000     0.966830000000     0.078900000000    -0.104256   
C110     C      0.314430000000     0.965460000000     0.082670000000    -0.104157   
C111     C      0.240320000000     0.989780000000     0.045660000000     0.0191373  
C112     C      0.284750000000     0.999240000000     0.056710000000     0.0188055  
C113     C      0.177810000000     0.036120000000     0.010450000000     0.0181554  
C114     C      0.218700000000     0.004800000000     0.001140000000    -0.103241   
C115     C      0.671700000000     0.962710000000     0.989200000000     0.0171046  
C116     C      0.851770000000     0.053800000000     0.035030000000     0.0171673  
C117     C      0.861950000000     0.014700000000     0.958800000000     0.0176161  
C118     C      0.807180000000     0.027170000000     0.043040000000    -0.102829   
C119     C      0.714090000000     0.979030000000     0.962260000000    -0.104096   
C120     C      0.818440000000     0.985900000000     0.966760000000    -0.103979   
C121     C      0.740050000000     0.014410000000     0.990020000000     0.0186696  
C122     C      0.786090000000     0.011450000000     0.998290000000     0.0182106  
C123     C      0.669110000000     0.038770000000     0.031350000000     0.0170064  
C124     C      0.711400000000     0.055010000000     0.005150000000    -0.103291   
C125     C      0.989410000000     0.682010000000     0.983980000000     0.0180046  
C126     C      0.014520000000     0.863060000000     0.074890000000     0.0170774  
C127     C      0.985040000000     0.860750000000     0.993660000000     0.0182757  
C128     C      0.045220000000     0.821020000000     0.065780000000    -0.104125   
C129     C      0.974380000000     0.723540000000     0.011810000000    -0.103036   
C130     C      0.013980000000     0.818080000000     0.984260000000    -0.103851   
C131     C      0.015720000000     0.746750000000     0.032980000000     0.0185811  
C132     C      0.023940000000     0.792470000000     0.028170000000     0.0187292  
C133     C      0.061070000000     0.674160000000     0.032700000000     0.0174912  
C134     C      0.046080000000     0.715770000000     0.061520000000    -0.104217   
C135     C      0.053680000000     0.175740000000     0.981110000000     0.0176445  
C136     C      0.959440000000     0.363820000000     0.979600000000     0.0176337  
C137     C      0.039530000000     0.362210000000     0.947620000000     0.0172713  
C138     C      0.970340000000     0.323820000000     0.011810000000    -0.102729   
C139     C      0.028520000000     0.216640000000     0.960000000000    -0.103279   
C140     C      0.051430000000     0.320270000000     0.976830000000    -0.102372   
C141     C      0.008470000000     0.247810000000     0.996490000000     0.0178541  
C142     C      0.008490000000     0.294420000000     0.991890000000     0.0170159  
C143     C      0.007480000000     0.183880000000     0.053400000000     0.0170054  
C144     C      0.979970000000     0.223700000000     0.032660000000    -0.102947   
H1       H      0.529590000000     0.071390000000     0.736720000000     0.0407325  
H2       H      0.441080000000     0.953750000000     0.852560000000     0.022794   
H3       H      0.582170000000     0.956740000000     0.682370000000     0.02284    
H4       H      0.533430000000     0.924700000000     0.737200000000     0.0406946  
H5       H      0.491120000000     0.923840000000     0.797730000000     0.0406964  
H6       H      0.489410000000     0.070640000000     0.798320000000     0.0407171  
H7       H      0.532800000000     0.071770000000     0.651930000000     0.0315748  
H8       H      0.485540000000     0.922920000000     0.881900000000     0.0318114  
H9       H      0.481200000000     0.942440000000     0.709000000000     0.0487618  
H10      H      0.541630000000     0.051950000000     0.825830000000     0.0489391  
H11      H      0.539050000000     0.924040000000     0.653080000000     0.0318863  
H12      H      0.440770000000     0.040440000000     0.853770000000     0.0222199  
H13      H      0.477940000000     0.050920000000     0.709400000000     0.0488249  
H14      H      0.542570000000     0.943610000000     0.825990000000     0.0487171  
H15      H      0.485600000000     0.070780000000     0.882980000000     0.0315393  
H16      H      0.579000000000     0.043310000000     0.680920000000     0.0223622  
H17      H      0.522570000000     0.064120000000     0.299250000000     0.0412349  
H18      H      0.579040000000     0.955910000000     0.186360000000     0.0236167  
H19      H      0.441810000000     0.952380000000     0.349710000000     0.0235528  
H20      H      0.493860000000     0.915450000000     0.299760000000     0.0408559  
H21      H      0.527660000000     0.916170000000     0.235050000000     0.0408857  
H22      H      0.492430000000     0.063510000000     0.235760000000     0.0411917  
H23      H      0.498470000000     0.067020000000     0.378670000000     0.031926   
H24      H      0.541330000000     0.921460000000     0.152220000000     0.0323833  
H25      H      0.544330000000     0.935280000000     0.329570000000     0.0481175  
H26      H      0.459910000000     0.025430000000     0.202190000000     0.0503693  
H27      H      0.481790000000     0.919720000000     0.383030000000     0.0322942  
H28      H      0.563170000000     0.044820000000     0.191010000000     0.0234519  
H29      H      0.557400000000     0.027510000000     0.332200000000     0.0504952  
H30      H      0.477000000000     0.934210000000     0.204500000000     0.0482296  
H31      H      0.517470000000     0.067800000000     0.156580000000     0.0319315  
H32      H      0.453490000000     0.041900000000     0.344830000000     0.0232954  
H33      H      0.089760000000     0.500770000000     0.713650000000     0.0406379  
H34      H      0.972770000000     0.595870000000     0.826530000000     0.0222886  
H35      H      0.973180000000     0.451070000000     0.659210000000     0.0225267  
H36      H      0.942590000000     0.503280000000     0.711630000000     0.0406927  
H37      H      0.942680000000     0.546590000000     0.771400000000     0.0406953  
H38      H      0.089340000000     0.543950000000     0.773680000000     0.0405944  
H39      H      0.091240000000     0.493530000000     0.629120000000     0.0318094  
H40      H      0.940710000000     0.552430000000     0.855960000000     0.0315604  
H41      H      0.963420000000     0.553360000000     0.681930000000     0.0490232  
H42      H      0.069260000000     0.492860000000     0.802170000000     0.048618   
H43      H      0.943130000000     0.494460000000     0.627720000000     0.0315796  
H44      H      0.059250000000     0.594330000000     0.827890000000     0.0226324  
H45      H      0.071590000000     0.551760000000     0.683820000000     0.0482643  
H46      H      0.959990000000     0.494800000000     0.800460000000     0.0490548  
H47      H      0.088760000000     0.549800000000     0.858300000000     0.0318183  
H48      H      0.060060000000     0.450080000000     0.659500000000     0.0230157  
H49      H      0.088810000000     0.533350000000     0.270440000000     0.0406571  
H50      H      0.961860000000     0.450580000000     0.156190000000     0.022372   
H51      H      0.975920000000     0.590120000000     0.327140000000     0.0222582  
H52      H      0.941870000000     0.541350000000     0.273910000000     0.0406267  
H53      H      0.938110000000     0.501280000000     0.212570000000     0.0406197  
H54      H      0.084470000000     0.489820000000     0.210510000000     0.0406079  
H55      H      0.091540000000     0.539770000000     0.354970000000     0.0316239  
H56      H      0.935920000000     0.498330000000     0.127490000000     0.0315705  
H57      H      0.959320000000     0.489290000000     0.302310000000     0.0492183  
H58      H      0.069020000000     0.542420000000     0.181850000000     0.0486868  
H59      H      0.943720000000     0.547980000000     0.358090000000     0.0314663  
H60      H      0.048290000000     0.442250000000     0.156870000000     0.0227645  
H61      H      0.067200000000     0.483510000000     0.299960000000     0.0482769  
H62      H      0.960560000000     0.551690000000     0.184680000000     0.0486258  
H63      H      0.083190000000     0.482750000000     0.126450000000     0.0318464  
H64      H      0.062940000000     0.585570000000     0.325400000000     0.0232153  
H65      H      0.286390000000     0.944950000000     0.583330000000     0.0416322  
H66      H      0.179710000000     0.073440000000     0.497710000000     0.0226733  
H67      H      0.341270000000     0.014150000000     0.467420000000     0.0230126  
H68      H      0.287010000000     0.069810000000     0.499980000000     0.0418963  
H69      H      0.239570000000     0.027540000000     0.461130000000     0.0420045  
H70      H      0.216440000000     0.975520000000     0.599460000000     0.0415097  
H71      H      0.371710000000     0.939510000000     0.573570000000     0.029345   
H72      H      0.154380000000     0.039440000000     0.453440000000     0.0308595  
H73      H      0.316640000000     0.069490000000     0.552820000000     0.0500485  
H74      H      0.192190000000     0.943510000000     0.552520000000     0.0485043  
H75      H      0.372210000000     0.061530000000     0.491310000000     0.031501   
H76      H      0.167460000000     0.041410000000     0.585200000000     0.026119   
H77      H      0.316070000000     0.994940000000     0.604570000000     0.0484784  
H78      H      0.207160000000     0.976450000000     0.468060000000     0.0502788  
H79      H      0.132750000000     0.990460000000     0.590140000000     0.0295376  
H80      H      0.340120000000     0.934810000000     0.521000000000     0.0265357  
H81      H      0.725830000000     0.935630000000     0.442820000000     0.0413228  
H82      H      0.832280000000     0.078720000000     0.491240000000     0.0223693  
H83      H      0.687440000000     0.020030000000     0.552950000000     0.0227896  
H84      H      0.729080000000     0.074170000000     0.501550000000     0.0416757  
H85      H      0.779170000000     0.040580000000     0.545090000000     0.0420657  
H86      H      0.794640000000     0.960170000000     0.419410000000     0.0413574  
H87      H      0.643530000000     0.928770000000     0.467020000000     0.0306691  
H88      H      0.862390000000     0.059960000000     0.541230000000     0.0308667  
H89      H      0.690410000000     0.061170000000     0.456690000000     0.0503277  
H90      H      0.822740000000     0.939550000000     0.470310000000     0.0481202  
H91      H      0.649280000000     0.062420000000     0.529990000000     0.031688   
H92      H      0.842840000000     0.027650000000     0.415060000000     0.025508   
H93      H      0.689990000000     0.979880000000     0.418940000000     0.0479481  
H94      H      0.814250000000     0.990870000000     0.545960000000     0.0511641  
H95      H      0.878750000000     0.977550000000     0.420140000000     0.0303079  
H96      H      0.683120000000     0.934330000000     0.513850000000     0.0257928  
H97      H      0.939610000000     0.740300000000     0.496670000000     0.041611   
H98      H      0.976950000000     0.857900000000     0.584120000000     0.0262757  
H99      H      0.077950000000     0.691420000000     0.502500000000     0.0262042  
H100     H      0.069320000000     0.735070000000     0.572800000000     0.0415047  
H101     H      0.039880000000     0.804280000000     0.594280000000     0.0414646  
H102     H      0.980680000000     0.789100000000     0.457770000000     0.0424185  
H103     H      0.951380000000     0.658120000000     0.474290000000     0.0311593  
H104     H      0.030250000000     0.889230000000     0.587860000000     0.0290299  
H105     H      0.021630000000     0.700420000000     0.591490000000     0.0483894  
H106     H      0.034170000000     0.817990000000     0.462910000000     0.0508627  
H107     H      0.077890000000     0.652700000000     0.550350000000     0.0299384  
H108     H      0.940550000000     0.849980000000     0.498650000000     0.0222413  
H109     H      0.944800000000     0.703170000000     0.544310000000     0.0501292  
H110     H      0.071990000000     0.828100000000     0.547130000000     0.0485184  
H111     H      0.973470000000     0.874640000000     0.453190000000     0.0303621  
H112     H      0.996530000000     0.694450000000     0.453660000000     0.0227474  
H113     H      0.980870000000     0.249810000000     0.535570000000     0.0423762  
H114     H      0.081110000000     0.350600000000     0.492830000000     0.0262943  
H115     H      0.998420000000     0.175560000000     0.412250000000     0.0262897  
H116     H      0.061820000000     0.228950000000     0.411090000000     0.0414643  
H117     H      0.081540000000     0.300450000000     0.427010000000     0.0414504  
H118     H      0.944500000000     0.294930000000     0.489390000000     0.0416924  
H119     H      0.972020000000     0.164710000000     0.541840000000     0.0313392  
H120     H      0.083500000000     0.384550000000     0.441680000000     0.0304769  
H121     H      0.084960000000     0.208000000000     0.464290000000     0.0484119  
H122     H      0.953740000000     0.327610000000     0.439320000000     0.0498074  
H123     H      0.051580000000     0.144860000000     0.419720000000     0.0302511  
H124     H      0.993800000000     0.347550000000     0.533950000000     0.0232082  
H125     H      0.034160000000     0.220590000000     0.539350000000     0.0503833  
H126     H      0.034280000000     0.330100000000     0.400460000000     0.0483332  
H127     H      0.950080000000     0.379220000000     0.504620000000     0.0318618  
H128     H      0.947050000000     0.187350000000     0.490720000000     0.0227025  
H129     H      0.224270000000     0.959330000000     0.112250000000     0.0413954  
H130     H      0.334770000000     0.009480000000     0.976490000000     0.0224582  
H131     H      0.191010000000     0.069120000000     0.024440000000     0.0222705  
H132     H      0.243150000000     0.021650000000     0.977380000000     0.0421811  
H133     H      0.287680000000     0.065290000000     0.020160000000     0.0420184  
H134     H      0.295190000000     0.934350000000     0.093470000000     0.0413973  
H135     H      0.140660000000     0.980130000000     0.108710000000     0.0294039  
H136     H      0.369830000000     0.055520000000     0.997200000000     0.0312192  
H137     H      0.206070000000     0.973630000000     0.983130000000     0.0508997  
H138     H      0.328310000000     0.982420000000     0.113740000000     0.0481006  
H139     H      0.160250000000     0.044090000000     0.977680000000     0.0305135  
H140     H      0.340600000000     0.928020000000     0.024050000000     0.0260489  
H141     H      0.195400000000     0.933920000000     0.064060000000     0.0481143  
H142     H      0.324860000000     0.059750000000     0.067840000000     0.0504145  
H143     H      0.378710000000     0.928830000000     0.072430000000     0.0297966  
H144     H      0.178550000000     0.029030000000     0.107780000000     0.0260211  
H145     H      0.735230000000     0.948190000000     0.954610000000     0.0415149  
H146     H      0.842730000000     0.087840000000     0.020300000000     0.0226455  
H147     H      0.680610000000     0.025060000000     0.064900000000     0.0232627  
H148     H      0.730590000000     0.080670000000     0.025570000000     0.0416363  
H149     H      0.783770000000     0.047960000000     0.064550000000     0.041837   
H150     H      0.802730000000     0.979480000000     0.932790000000     0.0414257  
H151     H      0.650650000000     0.940210000000     0.966700000000     0.0302376  
H152     H      0.868800000000     0.060230000000     0.068400000000     0.0312158  
H153     H      0.699630000000     0.073520000000     0.974080000000     0.0499596  
H154     H      0.827790000000     0.952330000000     0.982300000000     0.0484618  
H155     H      0.646710000000     0.068900000000     0.038400000000     0.0318833  
H156     H      0.852590000000     0.045670000000     0.938560000000     0.0253884  
H157     H      0.703030000000     0.994600000000     0.929400000000     0.0483023  
H158     H      0.815420000000     0.996010000000     0.063390000000     0.0505027  
H159     H      0.886510000000     0.993980000000     0.938210000000     0.0306528  
H160     H      0.683480000000     0.941680000000     0.018670000000     0.0262436  
H161     H      0.952930000000     0.746680000000     0.990570000000     0.0418443  
H162     H      0.981620000000     0.851210000000     0.090340000000     0.0260843  
H163     H      0.085580000000     0.686010000000     0.006000000000     0.0262102  
H164     H      0.077750000000     0.733510000000     0.073380000000     0.0415731  
H165     H      0.048370000000     0.801640000000     0.098300000000     0.0414295  
H166     H      0.997280000000     0.796740000000     0.957660000000     0.0422599  
H167     H      0.958310000000     0.663190000000     0.972160000000     0.0309736  
H168     H      0.032140000000     0.885640000000     0.100050000000     0.0299077  
H169     H      0.026590000000     0.703870000000     0.091940000000     0.0484037  
H170     H      0.047430000000     0.829230000000     0.969520000000     0.0507352  
H171     H      0.079520000000     0.649400000000     0.055110000000     0.0292009  
H172     H      0.949730000000     0.849420000000     0.003070000000     0.0223238  
H173     H      0.951670000000     0.711480000000     0.039900000000     0.0504827  
H174     H      0.080110000000     0.832450000000     0.055150000000     0.0483295  
H175     H      0.982100000000     0.881360000000     0.961840000000     0.0305     
H176     H      0.007660000000     0.694520000000     0.953000000000     0.0224058  
H177     H      0.051890000000     0.234180000000     0.935820000000     0.0414292  
H178     H      0.944420000000     0.349760000000     0.947580000000     0.0245455  
H179     H      0.036780000000     0.198230000000     0.073250000000     0.025392   
H180     H      0.970670000000     0.247130000000     0.061140000000     0.0415336  
H181     H      0.937990000000     0.303930000000     0.016260000000     0.0413452  
H182     H      0.076640000000     0.298930000000     0.958110000000     0.0412765  
H183     H      0.063460000000     0.151260000000     0.953660000000     0.03078    
H184     H      0.933050000000     0.385990000000     0.996020000000     0.0317174  
H185     H      0.947740000000     0.210430000000     0.017020000000     0.0483656  
H186     H      0.069370000000     0.332410000000     0.008090000000     0.0503178  
H187     H      0.984760000000     0.164920000000     0.077460000000     0.0310554  
H188     H      0.027840000000     0.349750000000     0.913660000000     0.0228903  
H189     H      0.999490000000     0.203320000000     0.939130000000     0.0507567  
H190     H      0.981250000000     0.337280000000     0.045630000000     0.0489211  
H191     H      0.071070000000     0.383080000000     0.942050000000     0.0312657  
H192     H      0.086120000000     0.188580000000     0.996730000000     0.0225016  
N1       N      0.488060000000     0.996820000000     0.886860000000    -0.189168   
N2       N      0.533370000000     0.997780000000     0.648090000000    -0.189197   
N3       N      0.530230000000     0.994930000000     0.149700000000    -0.189341   
N4       N      0.489370000000     0.993590000000     0.385570000000    -0.189352   
N5       N      0.014610000000     0.548400000000     0.861580000000    -0.188743   
N6       N      0.017280000000     0.496260000000     0.623860000000    -0.18875    
N7       N      0.009750000000     0.492970000000     0.122460000000    -0.188524   
N8       N      0.017680000000     0.541790000000     0.361070000000    -0.188595   
N9       N      0.139420000000     0.018490000000     0.522530000000    -0.188977   
N10      N      0.376020000000     0.997600000000     0.528620000000    -0.188833   
N11      N      0.874700000000     0.020880000000     0.479650000000    -0.189247   
N12      N      0.642730000000     0.993720000000     0.502280000000    -0.188958   
N13      N      0.999250000000     0.886090000000     0.521350000000    -0.188946   
N14      N      0.017060000000     0.651910000000     0.508480000000    -0.189012   
N15      N      0.019200000000     0.385960000000     0.478090000000    -0.18878    
N16      N      0.008410000000     0.150180000000     0.479190000000    -0.189009   
N17      N      0.377950000000     0.990030000000     0.031270000000    -0.189073   
N18      N      0.146630000000     0.015180000000     0.044330000000    -0.189215   
N19      N      0.882040000000     0.029480000000     0.002630000000    -0.188827   
N20      N      0.644640000000     0.001940000000     0.006520000000    -0.188585   
N21      N      0.004380000000     0.887460000000     0.031910000000    -0.189314   
N22      N      0.021110000000     0.652520000000     0.010310000000    -0.18914    
N23      N      0.002030000000     0.388910000000     0.968630000000    -0.189116   
N24      N      0.025620000000     0.154000000000     0.017050000000    -0.189069   
O1       O      0.012650000000     0.088200000000     0.057940000000    -0.559162   
O2       O      0.004480000000     0.958340000000     0.065610000000    -0.559293   
O3       O      0.072910000000     0.018700000000     0.071890000000    -0.556889   
O4       O      0.943950000000     0.027830000000     0.051330000000    -0.556049   
O5       O      0.955780000000     0.021690000000     0.976300000000    -0.561189   
O6       O      0.084400000000     0.014930000000     0.996610000000    -0.561544   
O7       O      0.014710000000     0.953240000000     0.990230000000    -0.559085   
O8       O      0.025460000000     0.083100000000     0.982980000000    -0.5591     
O9       O      0.015680000000     0.076190000000     0.453670000000    -0.559892   
O10      O      0.009830000000     0.947620000000     0.473960000000    -0.559562   
O11      O      0.948510000000     0.012030000000     0.453550000000    -0.558411   
O12      O      0.077600000000     0.012070000000     0.474330000000    -0.557718   
O13      O      0.065440000000     0.023110000000     0.548790000000    -0.560234   
O14      O      0.936690000000     0.025340000000     0.527680000000    -0.56009    
O15      O      0.999430000000     0.959800000000     0.548530000000    -0.558081   
O16      O      0.002520000000     0.088600000000     0.527720000000    -0.558182   
O17      O      0.049100000000     0.503640000000     0.055350000000    -0.557501   
O18      O      0.051610000000     0.531920000000     0.928880000000    -0.557171   
O19      O      0.054730000000     0.581370000000     0.006440000000    -0.554624   
O20      O      0.045660000000     0.454110000000     0.977760000000    -0.554852   
O21      O      0.969180000000     0.458940000000     0.982570000000    -0.561979   
O22      O      0.978360000000     0.587430000000     0.000370000000    -0.561642   
O23      O      0.974880000000     0.533080000000     0.927650000000    -0.558146   
O24      O      0.972960000000     0.513190000000     0.055890000000    -0.557116   
O25      O      0.979740000000     0.526470000000     0.428050000000    -0.559451   
O26      O      0.979490000000     0.511250000000     0.556690000000    -0.559403   
O27      O      0.979260000000     0.583630000000     0.498820000000    -0.560185   
O28      O      0.980210000000     0.453970000000     0.485880000000    -0.559693   
O29      O      0.056860000000     0.455080000000     0.481190000000    -0.557045   
O30      O      0.055890000000     0.583530000000     0.504330000000    -0.556611   
O31      O      0.056160000000     0.507860000000     0.556510000000    -0.556038   
O32      O      0.056370000000     0.530630000000     0.428670000000    -0.555391   
O33      O      0.523970000000     0.957230000000     0.081230000000    -0.55959    
O34      O      0.501700000000     0.957990000000     0.953680000000    -0.558983   
O35      O      0.577360000000     0.960670000000     0.006490000000    -0.555731   
O36      O      0.448440000000     0.954630000000     0.028670000000    -0.555549   
O37      O      0.444560000000     0.031050000000     0.023430000000    -0.562147   
O38      O      0.574440000000     0.036960000000     0.013520000000    -0.560898   
O39      O      0.503150000000     0.034580000000     0.953990000000    -0.560541   
O40      O      0.515390000000     0.033330000000     0.082900000000    -0.561126   
O41      O      0.497480000000     0.956300000000     0.454130000000    -0.559052   
O42      O      0.520470000000     0.958280000000     0.581560000000    -0.55918    
O43      O      0.444460000000     0.958420000000     0.529270000000    -0.555864   
O44      O      0.573360000000     0.956210000000     0.506390000000    -0.555872   
O45      O      0.574920000000     0.032730000000     0.510850000000    -0.562676   
O46      O      0.445040000000     0.034730000000     0.521720000000    -0.561639   
O47      O      0.516780000000     0.034790000000     0.580880000000    -0.560681   
O48      O      0.503600000000     0.032630000000     0.452100000000    -0.561822   
V1       V      0.007980000000     0.023460000000     0.064700000000     1.38442    
V2       V      0.020540000000     0.017980000000     0.983550000000     1.39448    
V3       V      0.013500000000     0.011420000000     0.460940000000     1.38919    
V4       V      0.000600000000     0.024680000000     0.541150000000     1.39036    
V5       V      0.053390000000     0.517510000000     0.992150000000     1.37787    
V6       V      0.970780000000     0.523370000000     0.991700000000     1.39474    
V7       V      0.976600000000     0.518800000000     0.492340000000     1.39441    
V8       V      0.059440000000     0.519320000000     0.492650000000     1.37869    
V9       V      0.513040000000     0.954500000000     0.017430000000     1.38168    
V10      V      0.509310000000     0.037070000000     0.018470000000     1.39755    
V11      V      0.508860000000     0.954170000000     0.517930000000     1.38133    
V12      V      0.510070000000     0.036810000000     0.516400000000     1.39922    


