data_structure

_audit_creation_method RASPA-1.0
_audit_creation_date 2023-5-25
_audit_author_name 'Poobodin Mano'

_cell_length_a    28.9304
_cell_length_b    28.9946
_cell_length_c    29.1625
_cell_angle_alpha 90
_cell_angle_beta  90
_cell_angle_gamma 90
_cell_volume      24462.2

_symmetry_cell_setting          triclinic
_symmetry_space_group_name_Hall 'P 1'
_symmetry_space_group_name_H-M  'P 1'
_symmetry_Int_Tables_number     1

_symmetry_equiv_pos_as_xyz 'x,y,z'

loop_
_atom_site_label
_atom_site_type_symbol
_atom_site_fract_x
_atom_site_fract_y
_atom_site_fract_z
_atom_site_charge
C1       C      0.004370000000     0.092950000000     0.498640000000     0.480836   
C2       C      0.005050000000     0.918630000000     0.487770000000     0.489071   
C3       C      0.918370000000     0.006310000000     0.481930000000     0.477894   
C4       C      0.092060000000     0.004900000000     0.503880000000     0.494396   
C5       C      0.987710000000     0.419690000000     0.502350000000     0.500305   
C6       C      0.016600000000     0.591630000000     0.511910000000     0.476207   
C7       C      0.999440000000     0.508430000000     0.421050000000     0.495831   
C8       C      0.004300000000     0.502020000000     0.594660000000     0.492399   
C9       C      0.521180000000     0.018890000000     0.600350000000     0.494133   
C10      C      0.493780000000     0.991110000000     0.430980000000     0.475464   
C11      C      0.592750000000     0.017030000000     0.501760000000     0.495263   
C12      C      0.422100000000     0.992370000000     0.531710000000     0.475196   
C13      C      0.534830000000     0.102190000000     0.019300000000     0.496762   
C14      C      0.503780000000     0.930460000000     0.012300000000     0.49354    
C15      C      0.519760000000     0.013360000000     0.103750000000     0.491623   
C16      C      0.518580000000     0.018850000000     0.930100000000     0.484706   
C17      C      0.036630000000     0.543310000000     0.922010000000     0.474763   
C18      C      0.041730000000     0.540160000000     0.095700000000     0.481384   
C19      C      0.952370000000     0.528180000000     0.013400000000     0.495354   
C20      C      0.125170000000     0.554680000000     0.005230000000     0.477497   
C21      C      0.534620000000     0.430690000000     0.040860000000     0.476389   
C22      C      0.528480000000     0.604980000000     0.029720000000     0.474288   
C23      C      0.619520000000     0.520330000000     0.027590000000     0.475358   
C24      C      0.445130000000     0.515710000000     0.042150000000     0.488034   
C25      C      0.694970000000     0.547560000000     0.056740000000     0.0163152  
C26      C      0.885180000000     0.476140000000     0.007060000000     0.0393523  
C27      C      0.878560000000     0.553340000000     0.047110000000     0.346274   
C28      C      0.837260000000     0.482800000000     0.985450000000    -0.124774   
C29      C      0.739170000000     0.521140000000     0.068150000000    -0.0996622  
C30      C      0.830190000000     0.559900000000     0.027210000000    -0.197846   
C31      C      0.762920000000     0.504930000000     0.024760000000     0.00980935 
C32      C      0.808150000000     0.514020000000     0.015410000000     0.0738541  
C33      C      0.689250000000     0.504840000000     0.981190000000     0.0162625  
C34      C      0.732670000000     0.476810000000     0.993010000000    -0.100035   
C35      C      0.194780000000     0.601290000000     0.022980000000     0.0153551  
C36      C      0.369760000000     0.495940000000     0.007820000000     0.0397375  
C37      C      0.373690000000     0.535790000000     0.084780000000     0.343262   
C38      C      0.337680000000     0.533250000000     0.989690000000    -0.121879   
C39      C      0.233500000000     0.585010000000     0.055690000000    -0.10038    
C40      C      0.339010000000     0.572700000000     0.067990000000    -0.193244   
C41      C      0.263390000000     0.549190000000     0.031930000000     0.0180383  
C42      C      0.310140000000     0.553180000000     0.029110000000     0.0669308  
C43      C      0.200950000000     0.527310000000     0.978000000000     0.0188518  
C44      C      0.237410000000     0.509100000000     0.010810000000    -0.0997034  
C45      C      0.538990000000     0.677260000000     0.985550000000     0.0154978  
C46      C      0.452770000000     0.863130000000     0.023710000000     0.039844   
C47      C      0.524620000000     0.857230000000     0.974990000000     0.34651    
C48      C      0.463770000000     0.816680000000     0.046500000000    -0.124321   
C49      C      0.501850000000     0.711940000000     0.971400000000    -0.0977978  
C50      C      0.535660000000     0.809980000000     0.995360000000    -0.197574   
C51      C      0.486840000000     0.740470000000     0.012300000000     0.00625086 
C52      C      0.492840000000     0.786990000000     0.014850000000     0.0738649  
C53      C      0.508740000000     0.679020000000     0.066990000000     0.014253   
C54      C      0.470050000000     0.712360000000     0.052720000000    -0.0980566  
C55      C      0.508580000000     0.356080000000     0.009580000000     0.0173713  
C56      C      0.586790000000     0.168030000000     0.036160000000     0.0414266  
C57      C      0.510440000000     0.180010000000     0.995350000000     0.349049   
C58      C      0.577900000000     0.211090000000     0.065920000000    -0.126686   
C59      C      0.538010000000     0.315810000000     0.993310000000    -0.100582   
C60      C      0.500700000000     0.222130000000     0.025020000000    -0.200579   
C61      C      0.555600000000     0.289020000000     0.034220000000     0.0128866  
C62      C      0.545560000000     0.243640000000     0.041000000000     0.0772892  
C63      C      0.553890000000     0.359310000000     0.083770000000     0.0149707  
C64      C      0.582920000000     0.317380000000     0.068440000000    -0.100256   
C65      C      0.477360000000     0.036640000000     0.858110000000     0.0191955  
C66      C      0.557360000000     0.994130000000     0.673170000000     0.0396354  
C67      C      0.517320000000     0.071250000000     0.667040000000     0.349145   
C68      C      0.535420000000     0.985970000000     0.720130000000    -0.123061   
C69      C      0.492560000000     0.065640000000     0.816750000000    -0.101188   
C70      C      0.493070000000     0.063260000000     0.713120000000    -0.201337   
C71      C      0.526930000000     0.038300000000     0.788570000000     0.0143656  
C72      C      0.521530000000     0.031080000000     0.742720000000     0.0775808  
C73      C      0.553660000000     0.993850000000     0.857020000000     0.0168572  
C74      C      0.568680000000     0.021490000000     0.815050000000    -0.0988935  
C75      C      0.459410000000     0.016550000000     0.357380000000     0.016542   
C76      C      0.558760000000     0.992180000000     0.176510000000     0.0382144  
C77      C      0.483850000000     0.037130000000     0.177040000000     0.34669    
C78      C      0.541020000000     0.961320000000     0.215710000000    -0.123508   
C79      C      0.487280000000     0.031540000000     0.315580000000    -0.0981421  
C80      C      0.465240000000     0.006120000000     0.215020000000    -0.197796   
C81      C      0.505920000000     0.989830000000     0.290010000000     0.0100443  
C82      C      0.504690000000     0.986860000000     0.243320000000     0.0734327  
C83      C      0.503690000000     0.942150000000     0.361880000000     0.0154299  
C84      C      0.532230000000     0.955410000000     0.319350000000    -0.0992157  
C85      C      0.066710000000     0.510770000000     0.849760000000     0.0168394  
C86      C      0.965420000000     0.517570000000     0.668660000000     0.0382766  
C87      C      0.044530000000     0.480910000000     0.666950000000     0.345442   
C88      C      0.981100000000     0.551850000000     0.705560000000    -0.123587   
C89      C      0.040590000000     0.492560000000     0.808110000000    -0.0983432  
C90      C      0.060500000000     0.513300000000     0.705280000000    -0.195481   
C91      C      0.020370000000     0.531810000000     0.780170000000     0.00864791 
C92      C      0.019850000000     0.530690000000     0.733390000000     0.0711637  
C93      C      0.019400000000     0.583700000000     0.849190000000     0.0158557  
C94      C      0.992080000000     0.566440000000     0.807370000000    -0.0987982  
C95      C      0.025310000000     0.579320000000     0.169350000000     0.0206584  
C96      C      0.030830000000     0.478380000000     0.348350000000     0.0385559  
C97      C      0.958260000000     0.526750000000     0.348980000000     0.348763   
C98      C      0.048790000000     0.504370000000     0.306590000000    -0.122413   
C99      C      0.989110000000     0.563600000000     0.204480000000    -0.103931   
C100     C      0.975380000000     0.553670000000     0.306850000000    -0.199596   
C101     C      0.008880000000     0.524310000000     0.232540000000     0.0161078  
C102     C      0.009200000000     0.524830000000     0.279280000000     0.0753255  
C103     C      0.061290000000     0.500170000000     0.168470000000     0.0182342  
C104     C      0.026670000000     0.483850000000     0.204580000000    -0.100764   
C105     C      0.349350000000     0.020410000000     0.566420000000     0.0164901  
C106     C      0.168790000000     0.986630000000     0.472110000000     0.0386904  
C107     C      0.160990000000     0.026310000000     0.549220000000     0.345023   
C108     C      0.206580000000     0.955000000000     0.491250000000    -0.124812   
C109     C      0.302250000000     0.028390000000     0.543860000000    -0.0981193  
C110     C      0.201430000000     0.997650000000     0.567580000000    -0.195755   
C111     C      0.278890000000     0.983470000000     0.530190000000     0.00839646 
C112     C      0.231930000000     0.980220000000     0.529010000000     0.070473   
C113     C      0.354080000000     0.940950000000     0.532250000000     0.0170142  
C114     C      0.309180000000     0.948720000000     0.505540000000    -0.0990201  
C115     C      0.841340000000     0.984520000000     0.511080000000     0.0194221  
C116     C      0.658720000000     0.064680000000     0.474720000000     0.0375574  
C117     C      0.671340000000     0.992910000000     0.522950000000     0.348275   
C118     C      0.701300000000     0.052150000000     0.445230000000    -0.122845   
C119     C      0.803220000000     0.017930000000     0.524630000000    -0.103981   
C120     C      0.711510000000     0.979040000000     0.492360000000    -0.199926   
C121     C      0.778180000000     0.033920000000     0.481980000000     0.0185391  
C122     C      0.733760000000     0.021700000000     0.472530000000     0.0730352  
C123     C      0.849410000000     0.024680000000     0.434470000000     0.0151908  
C124     C      0.808920000000     0.057150000000     0.446810000000    -0.102598   
C125     C      0.067180000000     0.659070000000     0.497660000000     0.0157302  
C126     C      0.980720000000     0.844290000000     0.521150000000     0.0396281  
C127     C      0.023360000000     0.846830000000     0.445350000000     0.344406   
C128     C      0.012360000000     0.805870000000     0.537800000000    -0.123054   
C129     C      0.055890000000     0.701140000000     0.467390000000    -0.0998552  
C130     C      0.054900000000     0.806980000000     0.461190000000    -0.195552   
C131     C      0.022400000000     0.732570000000     0.492340000000     0.0156456  
C132     C      0.030090000000     0.778600000000     0.497230000000     0.069238   
C133     C      0.991350000000     0.668040000000     0.539540000000     0.0176623  
C134     C      0.978900000000     0.709390000000     0.509850000000    -0.0990236  
C135     C      0.023900000000     0.169500000000     0.466160000000     0.0159603  
C136     C      0.936060000000     0.352030000000     0.508140000000     0.0421275  
C137     C      0.012610000000     0.347040000000     0.466580000000     0.349512   
C138     C      0.944350000000     0.304420000000     0.529850000000    -0.126829   
C139     C      0.989450000000     0.206000000000     0.450210000000    -0.0985262  
C140     C      0.021640000000     0.299710000000     0.487390000000    -0.201453   
C141     C      0.969100000000     0.230700000000     0.491270000000     0.0100955  
C142     C      0.976680000000     0.276180000000     0.500120000000     0.0796101  
C143     C      0.981170000000     0.162930000000     0.541570000000     0.0152401  
C144     C      0.945870000000     0.199190000000     0.525640000000    -0.0994231  
F1       F      0.874660000000     0.536080000000     0.091230000000    -0.450458   
F2       F      0.349890000000     0.501690000000     0.108210000000    -0.445567   
F3       F      0.501330000000     0.851060000000     0.933940000000    -0.452329   
F4       F      0.529730000000     0.194310000000     0.954270000000    -0.450894   
F5       F      0.557050000000     0.096990000000     0.674060000000    -0.437117   
F6       F      0.502630000000     0.076470000000     0.196520000000    -0.451172   
F7       F      0.030670000000     0.439510000000     0.686230000000    -0.449452   
F8       F      0.929140000000     0.491620000000     0.334780000000    -0.435775   
F9       F      0.177480000000     0.069080000000     0.535850000000    -0.449399   
F10      F      0.688100000000     0.015920000000     0.561110000000    -0.44727    
F11      F      0.987480000000     0.829060000000     0.419320000000    -0.446129   
F12      F      0.993640000000     0.341390000000     0.423320000000    -0.444407   
H1       H      0.761500000000     0.542030000000     0.090970000000     0.0652713  
H2       H      0.881510000000     0.454960000000     0.038660000000     0.0515777  
H3       H      0.699470000000     0.534750000000     0.959560000000     0.0294632  
H4       H      0.750030000000     0.468100000000     0.960200000000     0.0448209  
H5       H      0.821660000000     0.447980000000     0.981780000000     0.0532068  
H6       H      0.809410000000     0.581520000000     0.050770000000     0.090183   
H7       H      0.675960000000     0.554910000000     0.089040000000     0.038582   
H8       H      0.907180000000     0.456580000000     0.982540000000     0.0313079  
H9       H      0.722640000000     0.444120000000     0.010280000000     0.0542797  
H10      H      0.833260000000     0.580070000000     0.994930000000     0.070023   
H11      H      0.665850000000     0.482620000000     0.960500000000     0.0362643  
H12      H      0.729570000000     0.490100000000     0.088410000000     0.0625611  
H13      H      0.840810000000     0.498400000000     0.950800000000     0.0544847  
H14      H      0.895270000000     0.587780000000     0.049620000000    -0.0115178  
H15      H      0.704890000000     0.581320000000     0.041520000000     0.0274773  
H16      H      0.253690000000     0.615850000000     0.066140000000     0.0456135  
H17      H      0.348350000000     0.467090000000     0.021290000000     0.0486529  
H18      H      0.218750000000     0.544550000000     0.948840000000     0.0251708  
H19      H      0.259670000000     0.483450000000     0.993310000000     0.0503489  
H20      H      0.316170000000     0.519990000000     0.961110000000     0.0497408  
H21      H      0.317710000000     0.583700000000     0.097720000000     0.0903149  
H22      H      0.170110000000     0.623280000000     0.042430000000     0.0340777  
H23      H      0.390910000000     0.481950000000     0.979190000000     0.0317014  
H24      H      0.219790000000     0.489980000000     0.038860000000     0.0655705  
H25      H      0.358290000000     0.603310000000     0.055310000000     0.0659629  
H26      H      0.180780000000     0.498000000000     0.963670000000     0.0344863  
H27      H      0.217910000000     0.569460000000     0.086910000000     0.0590241  
H28      H      0.359070000000     0.561290000000     0.974660000000     0.056991   
H29      H      0.398110000000     0.552420000000     0.109150000000    -0.0115577  
H30      H      0.210590000000     0.622700000000     0.995490000000     0.0287791  
H31      H      0.513600000000     0.732900000000     0.941820000000     0.0598431  
H32      H      0.428640000000     0.857160000000     0.994620000000     0.0506122  
H33      H      0.538250000000     0.699410000000     0.080710000000     0.0293794  
H34      H      0.460900000000     0.733640000000     0.083020000000     0.0422899  
H35      H      0.430200000000     0.799840000000     0.054530000000     0.0506092  
H36      H      0.553920000000     0.789120000000     0.969210000000     0.090595   
H37      H      0.546500000000     0.653950000000     0.956230000000     0.0364797  
H38      H      0.435020000000     0.885620000000     0.049130000000     0.0281978  
H39      H      0.438880000000     0.692420000000     0.042550000000     0.0496947  
H40      H      0.560570000000     0.814790000000     0.024000000000     0.070346   
H41      H      0.495510000000     0.656790000000     0.095150000000     0.0360801  
H42      H      0.471270000000     0.692370000000     0.958940000000     0.0564733  
H43      H      0.482840000000     0.822540000000     0.079080000000     0.0526812  
H44      H      0.557750000000     0.874960000000     0.967020000000    -0.0120579  
H45      H      0.571250000000     0.696630000000     0.993250000000     0.0271482  
H46      H      0.518780000000     0.294600000000     0.968100000000     0.0719433  
H47      H      0.608770000000     0.178110000000     0.006510000000     0.0512605  
H48      H      0.525180000000     0.346850000000     0.105910000000     0.0359994  
H49      H      0.592220000000     0.297470000000     0.099610000000     0.0479641  
H50      H      0.611940000000     0.227210000000     0.073250000000     0.0555173  
H51      H      0.477350000000     0.246240000000     0.006780000000     0.0901447  
H52      H      0.497560000000     0.376690000000     0.979360000000     0.0392515  
H53      H      0.606400000000     0.142430000000     0.056870000000     0.0354148  
H54      H      0.615380000000     0.329520000000     0.052010000000     0.0544127  
H55      H      0.481270000000     0.210720000000     0.055900000000     0.0784414  
H56      H      0.576080000000     0.382430000000     0.104780000000     0.0383297  
H57      H      0.568340000000     0.329780000000     0.974450000000     0.0636649  
H58      H      0.561960000000     0.200650000000     0.099000000000     0.0657809  
H59      H      0.476970000000     0.163040000000     0.987240000000    -0.00914423 
H60      H      0.476730000000     0.342080000000     0.025800000000     0.0315986  
H61      H      0.460850000000     0.074690000000     0.797310000000     0.0496509  
H62      H      0.592370000000     0.009010000000     0.678580000000     0.0610236  
H63      H      0.539000000000     0.960490000000     0.845040000000     0.0391046  
H64      H      0.593510000000     0.001230000000     0.794330000000     0.0533018  
H65      H      0.558940000000     0.964430000000     0.741030000000     0.0553552  
H66      H      0.488560000000     0.097630000000     0.729370000000     0.0971977  
H67      H      0.454870000000     0.058360000000     0.880270000000     0.0422395  
H68      H      0.562050000000     0.960400000000     0.655660000000     0.0378518  
H69      H      0.588150000000     0.052260000000     0.827060000000     0.0676378  
H70      H      0.458360000000     0.047890000000     0.707290000000     0.0710124  
H71      H      0.584620000000     0.985720000000     0.878090000000     0.0429964  
H72      H      0.509020000000     0.098110000000     0.828740000000     0.0698659  
H73      H      0.503520000000     0.965160000000     0.715250000000     0.0583579  
H74      H      0.493620000000     0.091750000000     0.644990000000    -0.00921841 
H75      H      0.456340000000     0.007050000000     0.845660000000     0.0351461  
H76      H      0.466230000000     0.055310000000     0.294530000000     0.066247   
H77      H      0.580000000000     0.020370000000     0.191550000000     0.0499055  
H78      H      0.473670000000     0.921020000000     0.350580000000     0.0278272  
H79      H      0.539520000000     0.922940000000     0.300470000000     0.0428793  
H80      H      0.571500000000     0.951510000000     0.236660000000     0.0507586  
H81      H      0.438460000000     0.024520000000     0.235000000000     0.0873532  
H82      H      0.448560000000     0.047580000000     0.377000000000     0.0392973  
H83      H      0.581720000000     0.971180000000     0.154180000000     0.0310375  
H84      H      0.565620000000     0.970920000000     0.330190000000     0.0524913  
H85      H      0.446970000000     0.976580000000     0.198810000000     0.0695696  
H86      H      0.525470000000     0.920390000000     0.384650000000     0.0352278  
H87      H      0.517320000000     0.052190000000     0.327580000000     0.0656602  
H88      H      0.525570000000     0.929370000000     0.201260000000     0.0522704  
H89      H      0.454340000000     0.048080000000     0.155220000000    -0.00976979 
H90      H      0.427460000000     0.999100000000     0.345160000000     0.0276107  
H91      H      0.063550000000     0.469230000000     0.788560000000     0.0633404  
H92      H      0.948810000000     0.487540000000     0.685770000000     0.0512939  
H93      H      0.048340000000     0.605800000000     0.837010000000     0.0286634  
H94      H      0.983330000000     0.597290000000     0.786490000000     0.0425884  
H95      H      0.950290000000     0.560070000000     0.726760000000     0.0503792  
H96      H      0.087980000000     0.496420000000     0.725630000000     0.0886873  
H97      H      0.077640000000     0.481150000000     0.871400000000     0.0373277  
H98      H      0.938720000000     0.534700000000     0.647170000000     0.0326349  
H99      H      0.959420000000     0.549900000000     0.818870000000     0.0520332  
H100     H      0.077220000000     0.543790000000     0.689180000000     0.0690166  
H101     H      0.996180000000     0.605360000000     0.870640000000     0.0337966  
H102     H      0.011470000000     0.470800000000     0.820380000000     0.0641551  
H103     H      0.993480000000     0.584200000000     0.689180000000     0.0528102  
H104     H      0.074490000000     0.473580000000     0.644240000000    -0.00949545 
H105     H      0.098700000000     0.528100000000     0.837470000000     0.0267341  
H106     H      0.980080000000     0.594140000000     0.225610000000     0.051542   
H107     H      0.013040000000     0.446630000000     0.336230000000     0.0648132  
H108     H      0.093260000000     0.511500000000     0.186410000000     0.0284803  
H109     H      0.041870000000     0.455660000000     0.225260000000     0.0539969  
H110     H      0.071800000000     0.481410000000     0.286660000000     0.0545285  
H111     H      0.944360000000     0.563060000000     0.286420000000     0.099355   
H112     H      0.009570000000     0.606520000000     0.147500000000     0.0419177  
H113     H      0.060710000000     0.467150000000     0.369560000000     0.0407402  
H114     H      0.996660000000     0.468210000000     0.186540000000     0.070852   
H115     H      0.992740000000     0.585950000000     0.318090000000     0.0715897  
H116     H      0.070730000000     0.470690000000     0.145980000000     0.0396188  
H117     H      0.957410000000     0.551710000000     0.186470000000     0.0784689  
H118     H      0.070920000000     0.533280000000     0.318660000000     0.0571595  
H119     H      0.937920000000     0.550760000000     0.370840000000    -0.00937501 
H120     H      0.054880000000     0.595100000000     0.188040000000     0.028365   
H121     H      0.281100000000     0.050080000000     0.567020000000     0.0652888  
H122     H      0.185340000000     0.016460000000     0.454600000000     0.0499781  
H123     H      0.345780000000     0.923850000000     0.565400000000     0.0288855  
H124     H      0.291610000000     0.914740000000     0.502560000000     0.042696   
H125     H      0.229510000000     0.945380000000     0.462240000000     0.0503944  
H126     H      0.220310000000     0.017430000000     0.594140000000     0.0900407  
H127     H      0.367910000000     0.053870000000     0.569340000000     0.0385574  
H128     H      0.148850000000     0.966980000000     0.445970000000     0.0307921  
H129     H      0.317240000000     0.961590000000     0.470530000000     0.0524994  
H130     H      0.187010000000     0.967030000000     0.585520000000     0.0689709  
H131     H      0.376640000000     0.917400000000     0.512100000000     0.0339687  
H132     H      0.307650000000     0.048930000000     0.512120000000     0.0662683  
H133     H      0.190840000000     0.922980000000     0.505250000000     0.0524527  
H134     H      0.135990000000     0.032040000000     0.577610000000    -0.00997693 
H135     H      0.343240000000     0.007650000000     0.601870000000     0.0273648  
H136     H      0.780240000000     0.002410000000     0.550850000000     0.0794455  
H137     H      0.669520000000     0.090010000000     0.501270000000     0.0561675  
H138     H      0.835600000000     0.995490000000     0.413860000000     0.0335782  
H139     H      0.790270000000     0.065840000000     0.414690000000     0.0466592  
H140     H      0.717920000000     0.084820000000     0.434170000000     0.0539842  
H141     H      0.735760000000     0.956190000000     0.511090000000     0.0869105  
H142     H      0.860370000000     0.973630000000     0.542360000000     0.0388335  
H143     H      0.632570000000     0.081710000000     0.452460000000     0.0337095  
H144     H      0.822820000000     0.089660000000     0.461560000000     0.0552549  
H145     H      0.697840000000     0.957960000000     0.463530000000     0.0716962  
H146     H      0.874390000000     0.043920000000     0.412700000000     0.0379578  
H147     H      0.819260000000     0.048480000000     0.541320000000     0.0658498  
H148     H      0.689870000000     0.033260000000     0.414060000000     0.0544811  
H149     H      0.654310000000     0.960870000000     0.535300000000    -0.00947598 
H150     H      0.825220000000     0.953090000000     0.496160000000     0.0296167  
H151     H      0.089060000000     0.718700000000     0.459410000000     0.0449514  
H152     H      0.949050000000     0.828380000000     0.506400000000     0.0468075  
H153     H      0.007900000000     0.680940000000     0.571490000000     0.0239749  
H154     H      0.955230000000     0.732640000000     0.528760000000     0.0492907  
H155     H      0.994800000000     0.784640000000     0.564180000000     0.0491737  
H156     H      0.064400000000     0.786440000000     0.430470000000     0.090748   
H157     H      0.088090000000     0.634280000000     0.477250000000     0.0343729  
H158     H      0.969700000000     0.865520000000     0.550940000000     0.0309426  
H159     H      0.958980000000     0.696920000000     0.479690000000     0.0647332  
H160     H      0.087160000000     0.821310000000     0.476200000000     0.0662891  
H161     H      0.959190000000     0.649700000000     0.549710000000     0.0351523  
H162     H      0.040000000000     0.689470000000     0.434700000000     0.0584061  
H163     H      0.042520000000     0.821760000000     0.555370000000     0.0550671  
H164     H      0.044060000000     0.870130000000     0.423060000000    -0.0123641  
H165     H      0.088530000000     0.670770000000     0.527180000000     0.0279723  
H166     H      0.005400000000     0.229460000000     0.424680000000     0.0668044  
H167     H      0.914520000000     0.347630000000     0.476850000000     0.0571075  
H168     H      0.008560000000     0.180520000000     0.561850000000     0.0362698  
H169     H      0.932900000000     0.217530000000     0.556450000000     0.0477142  
H170     H      0.910020000000     0.287630000000     0.533500000000     0.0567041  
H171     H      0.043900000000     0.279510000000     0.463910000000     0.0938839  
H172     H      0.036240000000     0.149570000000     0.436000000000     0.0435382  
H173     H      0.916320000000     0.373680000000     0.532800000000     0.0362182  
H174     H      0.916050000000     0.181710000000     0.509040000000     0.0547057  
H175     H      0.042070000000     0.304330000000     0.519350000000     0.0788037  
H176     H      0.963280000000     0.138190000000     0.564650000000     0.0396495  
H177     H      0.960840000000     0.188310000000     0.431800000000     0.0609476  
H178     H      0.959780000000     0.308600000000     0.564510000000     0.0634847  
H179     H      0.046370000000     0.364830000000     0.462210000000    -0.00855686 
H180     H      0.054370000000     0.187350000000     0.481180000000     0.0369175  
N1       N      0.906100000000     0.520850000000     0.019260000000    -0.215823   
N2       N      0.666510000000     0.522110000000     0.023170000000    -0.187227   
N3       N      0.398090000000     0.514930000000     0.045390000000    -0.213422   
N4       N      0.171680000000     0.561280000000     0.001840000000    -0.188414   
N5       N      0.495360000000     0.884570000000     0.006250000000    -0.216302   
N6       N      0.524740000000     0.651880000000     0.027100000000    -0.187355   
N7       N      0.543000000000     0.148600000000     0.018730000000    -0.213853   
N8       N      0.534010000000     0.383670000000     0.043880000000    -0.185776   
N9       N      0.529790000000     0.026840000000     0.645730000000    -0.213053   
N10      N      0.517810000000     0.018700000000     0.883280000000    -0.183407   
N11      N      0.520030000000     0.012850000000     0.150670000000    -0.215167   
N12      N      0.486420000000     0.983810000000     0.385240000000    -0.187407   
N13      N      0.005320000000     0.501190000000     0.641580000000    -0.21449    
N14      N      0.038600000000     0.544630000000     0.875220000000    -0.187433   
N15      N      0.997510000000     0.506730000000     0.374300000000    -0.212954   
N16      N      0.042270000000     0.539540000000     0.142580000000    -0.185976   
N17      N      0.138920000000     0.003840000000     0.509390000000    -0.215146   
N18      N      0.376470000000     0.985530000000     0.541410000000    -0.187457   
N19      N      0.639350000000     0.023620000000     0.497840000000    -0.213767   
N20      N      0.871490000000     0.005970000000     0.476260000000    -0.186474   
N21      N      0.003990000000     0.871630000000     0.485220000000    -0.214493   
N22      N      0.024340000000     0.637930000000     0.515260000000    -0.188129   
N23      N      0.980190000000     0.373800000000     0.495230000000    -0.213649   
N24      N      0.002760000000     0.139950000000     0.501660000000    -0.184933   
O1       O      0.012440000000     0.073530000000     0.459820000000    -0.551763   
O2       O      0.008950000000     0.942690000000     0.450960000000    -0.546039   
O3       O      0.945050000000     0.011070000000     0.447000000000    -0.551008   
O4       O      0.075110000000     0.004970000000     0.463230000000    -0.557577   
O5       O      0.065410000000     0.005660000000     0.539180000000    -0.556958   
O6       O      0.935320000000     0.001410000000     0.522300000000    -0.559773   
O7       O      0.001590000000     0.938310000000     0.527060000000    -0.56562    
O8       O      0.997340000000     0.068580000000     0.534680000000    -0.557641   
O9       O      0.953220000000     0.447370000000     0.506380000000    -0.548113   
O10      O      0.974980000000     0.576370000000     0.513300000000    -0.559753   
O11      O      0.962390000000     0.515820000000     0.444270000000    -0.544035   
O12      O      0.965740000000     0.509080000000     0.574130000000    -0.562031   
O13      O      0.041710000000     0.496150000000     0.571500000000    -0.555857   
O14      O      0.038060000000     0.501020000000     0.441360000000    -0.560385   
O15      O      0.050940000000     0.563810000000     0.508040000000    -0.559638   
O16      O      0.029320000000     0.434960000000     0.502760000000    -0.558435   
O17      O      0.522400000000     0.977510000000     0.584570000000    -0.556733   
O18      O      0.506250000000     0.957400000000     0.456770000000    -0.55866    
O19      O      0.577640000000     0.976830000000     0.512200000000    -0.563987   
O20      O      0.449500000000     0.957580000000     0.529630000000    -0.560397   
O21      O      0.437280000000     0.033480000000     0.525230000000    -0.553847   
O22      O      0.564670000000     0.051130000000     0.496970000000    -0.545925   
O23      O      0.488070000000     0.031640000000     0.447820000000    -0.556931   
O24      O      0.512510000000     0.053090000000     0.573740000000    -0.546131   
O25      O      0.493090000000     0.087470000000     0.016640000000    -0.558365   
O26      O      0.469830000000     0.958580000000     0.017610000000    -0.556394   
O27      O      0.482340000000     0.023560000000     0.082350000000    -0.561235   
O28      O      0.480610000000     0.023770000000     0.952370000000    -0.554113   
O29      O      0.557050000000     0.013220000000     0.951410000000    -0.550281   
O30      O      0.556970000000     0.004250000000     0.081440000000    -0.557072   
O31      O      0.545540000000     0.945240000000     0.010760000000    -0.561225   
O32      O      0.568850000000     0.073730000000     0.021430000000    -0.551192   
O33      O      0.043200000000     0.504870000000     0.942800000000    -0.559206   
O34      O      0.047490000000     0.502570000000     0.072950000000    -0.552002   
O35      O      0.979850000000     0.493570000000     0.009640000000    -0.556214   
O36      O      0.109230000000     0.513430000000     0.004640000000    -0.561856   
O37      O      0.097870000000     0.589540000000     0.008190000000    -0.555096   
O38      O      0.968130000000     0.569570000000     0.013540000000    -0.55845    
O39      O      0.035000000000     0.578490000000     0.074810000000    -0.557139   
O40      O      0.029820000000     0.580680000000     0.944820000000    -0.556281   
O41      O      0.528750000000     0.449930000000     0.001660000000    -0.558387   
O42      O      0.529260000000     0.580610000000     0.992870000000    -0.556408   
O43      O      0.594450000000     0.514330000000     0.991780000000    -0.560341   
O44      O      0.464050000000     0.514650000000     0.002360000000    -0.565046   
O45      O      0.469940000000     0.517670000000     0.078660000000    -0.546045   
O46      O      0.600790000000     0.525050000000     0.067290000000    -0.55311    
O47      O      0.530510000000     0.585640000000     0.069220000000    -0.558284   
O48      O      0.539990000000     0.455250000000     0.077200000000    -0.549321   
V1       V      0.010710000000     0.008310000000     0.452160000000     1.39794    
V2       V      0.999700000000     0.003300000000     0.533860000000     1.40883    
V3       V      0.961030000000     0.512610000000     0.509530000000     1.41104    
V4       V      0.043080000000     0.498630000000     0.506050000000     1.40649    
V5       V      0.514300000000     0.964280000000     0.521140000000     1.40589    
V6       V      0.500170000000     0.045390000000     0.510380000000     1.40036    
V7       V      0.478400000000     0.023790000000     0.017390000000     1.41188    
V8       V      0.560220000000     0.008680000000     0.016370000000     1.39677    
V9       V      0.045250000000     0.500560000000     0.007550000000     1.40597    
V10      V      0.032290000000     0.582640000000     0.010190000000     1.39585    
V11      V      0.528960000000     0.514800000000     0.994120000000     1.40509    
V12      V      0.535660000000     0.520950000000     0.076210000000     1.39227    


