data_structure

_audit_creation_method RASPA-1.0
_audit_creation_date 2023-5-25
_audit_author_name 'Poobodin Mano'

_cell_length_a    28.9313
_cell_length_b    29.3921
_cell_length_c    29.1735
_cell_angle_alpha 90
_cell_angle_beta  90
_cell_angle_gamma 90
_cell_volume      24807.7

_symmetry_cell_setting          triclinic
_symmetry_space_group_name_Hall 'P 1'
_symmetry_space_group_name_H-M  'P 1'
_symmetry_Int_Tables_number     1

_symmetry_equiv_pos_as_xyz 'x,y,z'

loop_
_atom_site_label
_atom_site_type_symbol
_atom_site_fract_x
_atom_site_fract_y
_atom_site_fract_z
_atom_site_charge
C1       C      0.010430000000     0.073960000000     0.511650000000     0.476987   
C2       C      0.012190000000     0.901850000000     0.512100000000     0.476845   
C3       C      0.924090000000     0.988490000000     0.512500000000     0.479901   
C4       C      0.099190000000     0.988220000000     0.512750000000     0.479935   
C5       C      0.002820000000     0.403340000000     0.516160000000     0.48168    
C6       C      0.992090000000     0.574930000000     0.521070000000     0.480417   
C7       C      0.997670000000     0.491020000000     0.430780000000     0.479132   
C8       C      0.996790000000     0.486490000000     0.604280000000     0.482813   
C9       C      0.518410000000     0.000550000000     0.588770000000     0.474015   
C10      C      0.511820000000     0.012290000000     0.415600000000     0.478357   
C11      C      0.600710000000     0.022450000000     0.498170000000     0.475312   
C12      C      0.429110000000     0.990020000000     0.502860000000     0.474778   
C13      C      0.532240000000     0.105500000000     0.003300000000     0.473039   
C14      C      0.518540000000     0.933390000000     0.001220000000     0.480194   
C15      C      0.512070000000     0.017270000000     0.087110000000     0.476125   
C16      C      0.538350000000     0.021140000000     0.915430000000     0.478605   
C17      C      0.031970000000     0.528730000000     0.928140000000     0.476138   
C18      C      0.023910000000     0.526660000000     0.101510000000     0.474129   
C19      C      0.942030000000     0.509960000000     0.008840000000     0.478914   
C20      C      0.113190000000     0.544550000000     0.017460000000     0.479396   
C21      C      0.517970000000     0.432340000000     0.029940000000     0.476569   
C22      C      0.531090000000     0.603680000000     0.012770000000     0.472745   
C23      C      0.611960000000     0.510420000000     0.014990000000     0.473559   
C24      C      0.438040000000     0.525470000000     0.029010000000     0.473884   
C25      C      0.685870000000     0.491000000000     0.052040000000     0.0166082  
C26      C      0.868200000000     0.529350000000     0.971630000000     0.0282845  
C27      C      0.877230000000     0.455800000000     0.015800000000     0.194299   
C28      C      0.818850000000     0.534870000000     0.989540000000    -0.112837   
C29      C      0.724510000000     0.458240000000     0.037760000000    -0.101001   
C30      C      0.829060000000     0.462150000000     0.036960000000    -0.155833   
C31      C      0.752640000000     0.480650000000     0.000430000000     0.012579   
C32      C      0.798520000000     0.489980000000     0.005410000000     0.0487121  
C33      C      0.683980000000     0.524290000000     0.971700000000     0.0151796  
C34      C      0.724890000000     0.493990000000     0.958520000000    -0.0994153  
C35      C      0.369320000000     0.549560000000     0.073870000000     0.0149582  
C36      C      0.189840000000     0.522780000000     0.988530000000     0.0297799  
C37      C      0.179790000000     0.595040000000     0.034910000000     0.191253   
C38      C      0.231480000000     0.509430000000     0.017150000000    -0.114005   
C39      C      0.331310000000     0.583870000000     0.060370000000    -0.101277   
C40      C      0.223860000000     0.583310000000     0.062630000000    -0.152984   
C41      C      0.299660000000     0.562080000000     0.025390000000     0.0160238  
C42      C      0.254830000000     0.551850000000     0.035080000000     0.0454426  
C43      C      0.360520000000     0.509810000000     0.997310000000     0.0167045  
C44      C      0.324170000000     0.544530000000     0.983190000000    -0.100321   
C45      C      0.518970000000     0.671750000000     0.964320000000     0.0158704  
C46      C      0.546530000000     0.862280000000     0.035980000000     0.0283599  
C47      C      0.472880000000     0.863160000000     0.989100000000     0.191622   
C48      C      0.559910000000     0.816320000000     0.015740000000    -0.113892   
C49      C      0.488710000000     0.713620000000     0.973770000000    -0.0998984  
C50      C      0.485920000000     0.816610000000     0.968190000000    -0.158088   
C51      C      0.513140000000     0.744650000000     0.007330000000     0.0108112  
C52      C      0.517540000000     0.790350000000     0.000150000000     0.0465994  
C53      C      0.556260000000     0.678900000000     0.042240000000     0.0151015  
C54      C      0.527830000000     0.721790000000     0.051680000000    -0.0989005  
C55      C      0.501980000000     0.180300000000     0.978830000000     0.0168994  
C56      C      0.528420000000     0.361720000000     0.075350000000     0.0273768  
C57      C      0.487630000000     0.360140000000     0.998630000000     0.19245    
C58      C      0.556110000000     0.318760000000     0.062460000000    -0.113741   
C59      C      0.485720000000     0.219580000000     0.008900000000    -0.100371   
C60      C      0.515110000000     0.317950000000     0.984830000000    -0.153465   
C61      C      0.526790000000     0.244960000000     0.028560000000     0.0125398  
C62      C      0.530290000000     0.291230000000     0.026680000000     0.0468795  
C63      C      0.576240000000     0.175060000000     0.023950000000     0.0151775  
C64      C      0.561030000000     0.215370000000     0.054270000000    -0.100756   
C65      C      0.542600000000     0.959140000000     0.659020000000     0.0149838  
C66      C      0.511060000000     0.048140000000     0.840080000000     0.0288076  
C67      C      0.587860000000     0.007470000000     0.847180000000     0.191053   
C68      C      0.498120000000     0.018910000000     0.799040000000    -0.113466   
C69      C      0.573600000000     0.975880000000     0.698630000000    -0.100765   
C70      C      0.576370000000     0.978980000000     0.804060000000    -0.153049   
C71      C      0.547000000000     0.009240000000     0.728180000000     0.0145348  
C72      C      0.541380000000     0.003620000000     0.774240000000     0.0455812  
C73      C      0.494680000000     0.030860000000     0.664270000000     0.0163922  
C74      C      0.526080000000     0.048720000000     0.702100000000    -0.100173   
C75      C      0.536470000000     0.985620000000     0.161410000000     0.0174618  
C76      C      0.492940000000     0.057150000000     0.346510000000     0.027932   
C77      C      0.535520000000     0.981670000000     0.340360000000     0.191727   
C78      C      0.463470000000     0.044980000000     0.304480000000    -0.114789   
C79      C      0.545670000000     0.008580000000     0.207310000000    -0.101705   
C80      C      0.506990000000     0.970080000000     0.297840000000    -0.153578   
C81      C      0.500680000000     0.022760000000     0.229650000000     0.015377   
C82      C      0.490620000000     0.012970000000     0.274160000000     0.0455796  
C83      C      0.460850000000     0.028180000000     0.153990000000     0.0169654  
C84      C      0.469550000000     0.052010000000     0.200080000000    -0.102295   
C85      C      0.060480000000     0.494240000000     0.856140000000     0.0172198  
C86      C      0.955880000000     0.500440000000     0.677250000000     0.0275961  
C87      C      0.035130000000     0.464050000000     0.676710000000     0.191492   
C88      C      0.970930000000     0.533840000000     0.714830000000    -0.114127   
C89      C      0.030950000000     0.475280000000     0.817270000000    -0.0992825  
C90      C      0.050730000000     0.496230000000     0.714950000000    -0.158217   
C91      C      0.009970000000     0.513560000000     0.789240000000     0.01213    
C92      C      0.009730000000     0.512940000000     0.742620000000     0.0467944  
C93      C      0.015440000000     0.567630000000     0.854810000000     0.0166705  
C94      C      0.984160000000     0.549350000000     0.816520000000    -0.100982   
C95      C      0.999040000000     0.562700000000     0.173930000000     0.0166159  
C96      C      0.038960000000     0.475110000000     0.358380000000     0.0283288  
C97      C      0.954840000000     0.499090000000     0.357900000000     0.193277   
C98      C      0.048560000000     0.505520000000     0.317010000000    -0.11352    
C99      C      0.972490000000     0.542520000000     0.214690000000    -0.100368   
C100     C      0.964210000000     0.531250000000     0.317360000000    -0.155199   
C101     C      0.004410000000     0.512800000000     0.242910000000     0.0126581  
C102     C      0.004860000000     0.513990000000     0.289620000000     0.0473647  
C103     C      0.054180000000     0.496070000000     0.174400000000     0.0159447  
C104     C      0.029500000000     0.476130000000     0.216100000000    -0.099376   
C105     C      0.363670000000     0.937490000000     0.514670000000     0.0175675  
C106     C      0.172810000000     0.008260000000     0.474800000000     0.0281424  
C107     C      0.172030000000     0.972680000000     0.554210000000     0.192593   
C108     C      0.213000000000     0.977480000000     0.461180000000    -0.113212   
C109     C      0.317000000000     0.944470000000     0.538720000000    -0.101869   
C110     C      0.211650000000     0.940590000000     0.540130000000    -0.15428    
C111     C      0.285680000000     0.973320000000     0.508990000000     0.0170404  
C112     C      0.240140000000     0.963310000000     0.503150000000     0.0452785  
C113     C      0.353410000000     0.011300000000     0.471390000000     0.0166315  
C114     C      0.306030000000     0.018170000000     0.493240000000    -0.100423   
C115     C      0.668980000000     0.070980000000     0.513100000000     0.0172651  
C116     C      0.849600000000     0.979050000000     0.471660000000     0.0282207  
C117     C      0.851590000000     0.006560000000     0.553980000000     0.190584   
C118     C      0.817980000000     0.018590000000     0.458870000000    -0.11279    
C119     C      0.714650000000     0.056700000000     0.536000000000    -0.101792   
C120     C      0.819460000000     0.046540000000     0.541420000000    -0.152636   
C121     C      0.743620000000     0.028350000000     0.503290000000     0.0181945  
C122     C      0.790320000000     0.033230000000     0.500400000000     0.0437424  
C123     C      0.673730000000     0.004240000000     0.459150000000     0.0179118  
C124     C      0.718890000000     0.988690000000     0.480800000000    -0.100474   
C125     C      0.033290000000     0.829200000000     0.549460000000     0.0167588  
C126     C      0.946970000000     0.645160000000     0.510560000000     0.0292112  
C127     C      0.023020000000     0.646130000000     0.553660000000     0.191419   
C128     C      0.959680000000     0.689310000000     0.485840000000    -0.114978   
C129     C      0.003030000000     0.788470000000     0.562080000000    -0.100706   
C130     C      0.035060000000     0.691920000000     0.531690000000    -0.153422   
C131     C      0.987980000000     0.762800000000     0.519540000000     0.0124339  
C132     C      0.992210000000     0.716900000000     0.515410000000     0.0464762  
C133     C      0.998160000000     0.830420000000     0.470070000000     0.0177265  
C134     C      0.965310000000     0.791630000000     0.482960000000    -0.101903   
C135     C      0.982940000000     0.145220000000     0.546880000000     0.0166148  
C136     C      0.049760000000     0.335060000000     0.502930000000     0.0299722  
C137     C      0.972450000000     0.329940000000     0.543930000000     0.191689   
C138     C      0.039760000000     0.290900000000     0.477260000000    -0.115973   
C139     C      0.004870000000     0.191590000000     0.556690000000    -0.101115   
C140     C      0.963980000000     0.283570000000     0.521390000000    -0.153274   
C141     C      0.017350000000     0.216260000000     0.512770000000     0.0133067  
C142     C      0.008770000000     0.261330000000     0.506380000000     0.0463918  
C143     C      0.020190000000     0.144830000000     0.468230000000     0.0185178  
C144     C      0.045830000000     0.188870000000     0.479280000000    -0.102517   
H1       H      0.744930000000     0.450050000000     0.068880000000     0.0423159  
H2       H      0.866420000000     0.513170000000     0.937220000000     0.0306378  
H3       H      0.697590000000     0.558560000000     0.980580000000     0.0239857  
H4       H      0.745800000000     0.510390000000     0.931300000000     0.0438388  
H5       H      0.797990000000     0.552240000000     0.962970000000     0.0457365  
H6       H      0.814480000000     0.427670000000     0.043030000000     0.0674231  
H7       H      0.663790000000     0.473480000000     0.077800000000     0.0316914  
H8       H      0.883690000000     0.563630000000     0.966780000000     0.0297214  
H9       H      0.710990000000     0.462300000000     0.942930000000     0.0525006  
H10      H      0.832140000000     0.479830000000     0.070520000000     0.0596312  
H11      H      0.661040000000     0.528500000000     0.941420000000     0.032896   
H12      H      0.709260000000     0.426090000000     0.024560000000     0.0508089  
H13      H      0.819670000000     0.558150000000     0.019560000000     0.0519087  
H14      H      0.899290000000     0.439130000000     0.042310000000    -0.00483587 
H15      H      0.701530000000     0.521270000000     0.068890000000     0.0271218  
H16      H      0.905770000000     0.418070000000     0.969290000000     0.149594   
H17      H      0.312920000000     0.594420000000     0.092030000000     0.042762   
H18      H      0.202240000000     0.541010000000     0.957450000000     0.0303596  
H19      H      0.342690000000     0.479490000000     0.011740000000     0.023175   
H20      H      0.300440000000     0.530210000000     0.957010000000     0.0444403  
H21      H      0.254510000000     0.486620000000     0.997300000000     0.0458156  
H22      H      0.241380000000     0.615680000000     0.071820000000     0.0666814  
H23      H      0.394960000000     0.567250000000     0.095980000000     0.0327699  
H24      H      0.171960000000     0.491470000000     0.976580000000     0.0296858  
H25      H      0.341880000000     0.573620000000     0.966280000000     0.0537067  
H26      H      0.213890000000     0.565910000000     0.094980000000     0.057862   
H27      H      0.379570000000     0.498380000000     0.966300000000     0.0330522  
H28      H      0.347520000000     0.614620000000     0.045090000000     0.0512801  
H29      H      0.219370000000     0.489100000000     0.046960000000     0.053767   
H30      H      0.155130000000     0.612010000000     0.058830000000    -0.00539112 
H31      H      0.353290000000     0.521930000000     0.094520000000     0.0267308  
H32      H      0.161950000000     0.637270000000     0.987170000000     0.148631   
H33      H      0.482220000000     0.730320000000     0.940240000000     0.0415636  
H34      H      0.529120000000     0.856250000000     0.069430000000     0.0333895  
H35      H      0.590620000000     0.689530000000     0.028920000000     0.0241653  
H36      H      0.546930000000     0.744280000000     0.075500000000     0.0428832  
H37      H      0.581800000000     0.797770000000     0.040610000000     0.045263   
H38      H      0.453220000000     0.797970000000     0.961360000000     0.0595161  
H39      H      0.499180000000     0.648210000000     0.941860000000     0.0332477  
H40      H      0.578610000000     0.881780000000     0.043310000000     0.0303998  
H41      H      0.495950000000     0.711600000000     0.070310000000     0.0523087  
H42      H      0.503880000000     0.821900000000     0.934920000000     0.0585648  
H43      H      0.562220000000     0.660640000000     0.075080000000     0.0330812  
H44      H      0.454990000000     0.702800000000     0.988420000000     0.050325   
H45      H      0.582090000000     0.822340000000     0.985220000000     0.0524888  
H46      H      0.455400000000     0.883580000000     0.961860000000    -0.00592571 
H47      H      0.550260000000     0.682790000000     0.945120000000     0.0261404  
H48      H      0.411140000000     0.852140000000     0.012950000000     0.137599   
H49      H      0.461160000000     0.241200000000     0.989600000000     0.0514229  
H50      H      0.497550000000     0.351260000000     0.095490000000     0.0337715  
H51      H      0.598500000000     0.188320000000     0.995870000000     0.027691   
H52      H      0.592700000000     0.234420000000     0.063990000000     0.0419152  
H53      H      0.561580000000     0.299010000000     0.094470000000     0.0456035  
H54      H      0.495260000000     0.297940000000     0.959400000000     0.0650224  
H55      H      0.471400000000     0.160620000000     0.967040000000     0.0334278  
H56      H      0.550290000000     0.383530000000     0.097730000000     0.0287421  
H57      H      0.544520000000     0.202350000000     0.086070000000     0.0493269  
H58      H      0.546820000000     0.329250000000     0.966530000000     0.061572   
H59      H      0.597470000000     0.151470000000     0.045050000000     0.032527   
H60      H      0.465580000000     0.205300000000     0.037990000000     0.0548131  
H61      H      0.590420000000     0.328710000000     0.048570000000     0.0503692  
H62      H      0.481670000000     0.380420000000     0.966880000000    -0.00292851 
H63      H      0.518840000000     0.194780000000     0.947820000000     0.0249041  
H64      H      0.425540000000     0.374320000000     0.018750000000     0.143629   
H65      H      0.585160000000     0.945460000000     0.718040000000     0.0429659  
H66      H      0.526800000000     0.080250000000     0.827270000000     0.0311809  
H67      H      0.464590000000     0.013610000000     0.680460000000     0.0244876  
H68      H      0.507410000000     0.073540000000     0.723860000000     0.0441083  
H69      H      0.472820000000     0.037120000000     0.777250000000     0.0455869  
H70      H      0.609290000000     0.972410000000     0.785610000000     0.0673047  
H71      H      0.564090000000     0.938630000000     0.635120000000     0.0335878  
H72      H      0.479100000000     0.057630000000     0.858930000000     0.0303432  
H73      H      0.554700000000     0.068230000000     0.685950000000     0.0543804  
H74      H      0.561650000000     0.945660000000     0.814610000000     0.0580298  
H75      H      0.481020000000     0.060120000000     0.644290000000     0.0339411  
H76      H      0.604670000000     0.993070000000     0.684410000000     0.052302   
H77      H      0.479820000000     0.988090000000     0.811660000000     0.0534774  
H78      H      0.607910000000     0.985090000000     0.870810000000    -0.00423938 
H79      H      0.515550000000     0.936380000000     0.673460000000     0.0265026  
H80      H      0.627770000000     0.057900000000     0.863120000000     0.148596   
H81      H      0.567580000000     0.986270000000     0.228830000000     0.0552714  
H82      H      0.522420000000     0.078730000000     0.335250000000     0.0333916  
H83      H      0.438520000000     0.997930000000     0.159970000000     0.0289375  
H84      H      0.435250000000     0.057840000000     0.216120000000     0.0418801  
H85      H      0.454250000000     0.077320000000     0.287120000000     0.0451128  
H86      H      0.526130000000     0.946390000000     0.275160000000     0.0645308  
H87      H      0.570040000000     0.979090000000     0.144060000000     0.0333576  
H88      H      0.471350000000     0.077740000000     0.370280000000     0.0290734  
H89      H      0.486310000000     0.085530000000     0.194180000000     0.0497311  
H90      H      0.475840000000     0.950920000000     0.309080000000     0.0601613  
H91      H      0.441710000000     0.051970000000     0.131200000000     0.032158   
H92      H      0.566420000000     0.039810000000     0.201070000000     0.0559558  
H93      H      0.431010000000     0.028080000000     0.315680000000     0.0500649  
H94      H      0.541450000000     0.949210000000     0.359220000000    -0.0028587  
H95      H      0.520210000000     0.951970000000     0.168080000000     0.0257304  
H96      H      0.598300000000     0.999900000000     0.354170000000     0.143404   
H97      H      0.051480000000     0.450650000000     0.797030000000     0.0468907  
H98      H      0.938800000000     0.470680000000     0.693640000000     0.0381332  
H99      H      0.044200000000     0.587280000000     0.839020000000     0.0270757  
H100     H      0.973910000000     0.578870000000     0.795030000000     0.0424982  
H101     H      0.939970000000     0.541270000000     0.736050000000     0.0466416  
H102     H      0.078320000000     0.480060000000     0.735630000000     0.0586756  
H103     H      0.072000000000     0.465840000000     0.878560000000     0.0323056  
H104     H      0.929900000000     0.517640000000     0.655130000000     0.0311847  
H105     H      0.952470000000     0.534040000000     0.831570000000     0.0503429  
H106     H      0.067200000000     0.526450000000     0.698850000000     0.0614421  
H107     H      0.994900000000     0.591350000000     0.876430000000     0.0323647  
H108     H      0.002120000000     0.455390000000     0.832520000000     0.0555561  
H109     H      0.983110000000     0.566120000000     0.699050000000     0.050967   
H110     H      0.065330000000     0.457400000000     0.653880000000    -0.0029058  
H111     H      0.091980000000     0.509790000000     0.840890000000     0.023944   
H112     H      0.048390000000     0.404980000000     0.703690000000     0.138284   
H113     H      0.958700000000     0.571580000000     0.234840000000     0.041758   
H114     H      0.032500000000     0.439990000000     0.345740000000     0.0302272  
H115     H      0.084440000000     0.515950000000     0.186750000000     0.0235501  
H116     H      0.054440000000     0.456160000000     0.236680000000     0.0433242  
H117     H      0.077330000000     0.490940000000     0.296760000000     0.04501    
H118     H      0.931990000000     0.533130000000     0.296710000000     0.0663301  
H119     H      0.974120000000     0.581440000000     0.151860000000     0.0319786  
H120     H      0.070430000000     0.473750000000     0.380210000000     0.0295005  
H121     H      0.003240000000     0.451350000000     0.203820000000     0.0542344  
H122     H      0.972150000000     0.565940000000     0.330330000000     0.0583695  
H123     H      0.067800000000     0.467770000000     0.153030000000     0.0329426  
H124     H      0.942930000000     0.521840000000     0.202120000000     0.0514597  
H125     H      0.061200000000     0.538950000000     0.329700000000     0.0518478  
H126     H      0.928000000000     0.515780000000     0.379620000000    -0.00481927 
H127     H      0.024780000000     0.587620000000     0.187060000000     0.0263221  
H128     H      0.925200000000     0.440900000000     0.368080000000     0.148605   
H129     H      0.302060000000     0.910200000000     0.545010000000     0.0425734  
H130     H      0.187180000000     0.041570000000     0.485960000000     0.0297082  
H131     H      0.348340000000     0.995080000000     0.437310000000     0.0230999  
H132     H      0.283660000000     0.037300000000     0.469200000000     0.044144   
H133     H      0.234420000000     0.993880000000     0.434340000000     0.0446188  
H134     H      0.231970000000     0.932200000000     0.571290000000     0.0657757  
H135     H      0.387490000000     0.919640000000     0.538620000000     0.0306603  
H136     H      0.150910000000     0.014810000000     0.444200000000     0.0294598  
H137     H      0.310200000000     0.040230000000     0.523920000000     0.0567403  
H138     H      0.197040000000     0.908340000000     0.526470000000     0.0584802  
H139     H      0.369490000000     0.045120000000     0.465230000000     0.0321471  
H140     H      0.322330000000     0.961650000000     0.572260000000     0.0535711  
H141     H      0.198570000000     0.946250000000     0.445130000000     0.0519583  
H142     H      0.149320000000     0.953160000000     0.578050000000    -0.00434369 
H143     H      0.358460000000     0.915280000000     0.484220000000     0.0267122  
H144     H      0.163970000000     0.026400000000     0.591750000000     0.148962   
H145     H      0.732930000000     0.088380000000     0.546190000000     0.043406   
H146     H      0.827730000000     0.948910000000     0.479460000000     0.0302696  
H147     H      0.682130000000     0.025930000000     0.429030000000     0.0233868  
H148     H      0.739590000000     0.970530000000     0.454660000000     0.0443476  
H149     H      0.796430000000     0.010070000000     0.428650000000     0.0448941  
H150     H      0.798680000000     0.055490000000     0.572110000000     0.0658729  
H151     H      0.646410000000     0.087360000000     0.539190000000     0.0313178  
H152     H      0.871560000000     0.970120000000     0.441730000000     0.0299273  
H153     H      0.710900000000     0.963250000000     0.507860000000     0.0583718  
H154     H      0.840700000000     0.076750000000     0.532360000000     0.0583565  
H155     H      0.654560000000     0.974100000000     0.446130000000     0.0308855  
H156     H      0.707250000000     0.036470000000     0.567340000000     0.0546744  
H157     H      0.839930000000     0.047710000000     0.448000000000     0.0527889  
H158     H      0.875390000000     0.019150000000     0.581230000000    -0.00225914 
H159     H      0.676640000000     0.096500000000     0.485980000000     0.0269257  
H160     H      0.847080000000     0.948530000000     0.584940000000     0.147284   
H161     H      0.020890000000     0.767060000000     0.587830000000     0.0503078  
H162     H      0.925510000000     0.653450000000     0.541090000000     0.033706   
H163     H      0.029240000000     0.815840000000     0.453040000000     0.025866   
H164     H      0.957870000000     0.772350000000     0.451080000000     0.0413762  
H165     H      0.926820000000     0.707700000000     0.479060000000     0.0455298  
H166     H      0.056950000000     0.711860000000     0.555500000000     0.0657863  
H167     H      0.039130000000     0.850360000000     0.580520000000     0.0330001  
H168     H      0.925620000000     0.624100000000     0.486970000000     0.0291677  
H169     H      0.932290000000     0.805740000000     0.496290000000     0.0502611  
H170     H      0.056970000000     0.685320000000     0.501090000000     0.0596671  
H171     H      0.980300000000     0.852730000000     0.444880000000     0.0318604  
H172     H      0.971380000000     0.801410000000     0.579320000000     0.0539246  
H173     H      0.976590000000     0.681490000000     0.452540000000     0.0502539  
H174     H      0.055980000000     0.626830000000     0.557480000000    -0.00315148 
H175     H      0.067560000000     0.816140000000     0.538240000000     0.023558   
H176     H      0.003860000000     0.624230000000     0.613330000000     0.142874   
H177     H      0.982040000000     0.211320000000     0.579780000000     0.052091   
H178     H      0.071160000000     0.327340000000     0.533660000000     0.0341835  
H179     H      0.987990000000     0.153100000000     0.449090000000     0.0267986  
H180     H      0.051220000000     0.206760000000     0.446190000000     0.0417483  
H181     H      0.073740000000     0.274790000000     0.470220000000     0.0457203  
H182     H      0.942540000000     0.262090000000     0.544240000000     0.0666848  
H183     H      0.981090000000     0.125490000000     0.579350000000     0.0334729  
H184     H      0.070440000000     0.357430000000     0.479990000000     0.0294139  
H185     H      0.080140000000     0.181100000000     0.494550000000     0.0504769  
H186     H      0.942740000000     0.289060000000     0.490110000000     0.0599229  
H187     H      0.042570000000     0.124010000000     0.445380000000     0.0313914  
H188     H      0.037400000000     0.185900000000     0.576160000000     0.0545866  
H189     H      0.022490000000     0.298390000000     0.444060000000     0.0515491  
H190     H      0.938360000000     0.347540000000     0.546050000000    -0.00141358 
H191     H      0.946810000000     0.150960000000     0.535220000000     0.0235748  
H192     H      0.986950000000     0.352520000000     0.604650000000     0.15246    
N1       N      0.896400000000     0.500190000000     0.001900000000    -0.208716   
N2       N      0.658880000000     0.506130000000     0.011820000000    -0.188053   
N3       N      0.159420000000     0.553360000000     0.015010000000    -0.20878    
N4       N      0.391110000000     0.529230000000     0.032800000000    -0.188341   
N5       N      0.514430000000     0.887220000000     0.005610000000    -0.202987   
N6       N      0.533620000000     0.649920000000     0.007560000000    -0.187588   
N7       N      0.512980000000     0.386230000000     0.033950000000    -0.207593   
N8       N      0.535900000000     0.151920000000     0.003540000000    -0.187559   
N9       N      0.545030000000     0.024180000000     0.869140000000    -0.208089   
N10      N      0.519740000000     0.997640000000     0.635570000000    -0.187641   
N11      N      0.511280000000     0.015800000000     0.368910000000    -0.208053   
N12      N      0.504650000000     0.013070000000     0.133120000000    -0.188106   
N13      N      0.996400000000     0.484590000000     0.651020000000    -0.203927   
N14      N      0.034950000000     0.529610000000     0.881480000000    -0.188752   
N15      N      0.997840000000     0.490700000000     0.383920000000    -0.208522   
N16      N      0.023530000000     0.526770000000     0.148350000000    -0.188192   
N17      N      0.146400000000     0.988310000000     0.513200000000    -0.208507   
N18      N      0.382920000000     0.981350000000     0.499510000000    -0.188522   
N19      N      0.876920000000     0.990830000000     0.512740000000    -0.208385   
N20      N      0.646510000000     0.031290000000     0.492000000000    -0.188938   
N21      N      0.988960000000     0.621020000000     0.525590000000    -0.208781   
N22      N      0.012740000000     0.855440000000     0.511460000000    -0.189243   
N23      N      0.006450000000     0.357090000000     0.517720000000    -0.208442   
N24      N      0.007900000000     0.120280000000     0.510600000000    -0.189368   
O1       O      0.012010000000     0.052040000000     0.473700000000    -0.567247   
O2       O      0.011270000000     0.923610000000     0.474010000000    -0.566132   
O3       O      0.946010000000     0.987630000000     0.474180000000    -0.560664   
O4       O      0.077430000000     0.988500000000     0.474340000000    -0.560401   
O5       O      0.077050000000     0.987920000000     0.550870000000    -0.56344    
O6       O      0.946110000000     0.988110000000     0.550670000000    -0.563198   
O7       O      0.012740000000     0.923270000000     0.550520000000    -0.556483   
O8       O      0.010160000000     0.052750000000     0.550200000000    -0.556252   
O9       O      0.962960000000     0.422510000000     0.518960000000    -0.559452   
O10      O      0.955030000000     0.551410000000     0.516350000000    -0.562104   
O11      O      0.959200000000     0.486900000000     0.452370000000    -0.563094   
O12      O      0.958380000000     0.488350000000     0.582340000000    -0.560637   
O13      O      0.035490000000     0.486240000000     0.582710000000    -0.561479   
O14      O      0.035960000000     0.494670000000     0.452810000000    -0.560215   
O15      O      0.031790000000     0.555440000000     0.523020000000    -0.563603   
O16      O      0.039760000000     0.427250000000     0.513270000000    -0.564881   
O17      O      0.527900000000     0.965460000000     0.564230000000    -0.555842   
O18      O      0.517810000000     0.973240000000     0.434530000000    -0.560271   
O19      O      0.586180000000     0.981450000000     0.494000000000    -0.561479   
O20      O      0.457950000000     0.956780000000     0.503860000000    -0.557779   
O21      O      0.443330000000     0.031370000000     0.502930000000    -0.558851   
O22      O      0.572390000000     0.055270000000     0.505980000000    -0.555204   
O23      O      0.507140000000     0.048270000000     0.440120000000    -0.560461   
O24      O      0.507260000000     0.038380000000     0.569700000000    -0.558919   
O25      O      0.492660000000     0.087010000000     0.996350000000    -0.55776    
O26      O      0.482420000000     0.957960000000     0.994040000000    -0.550349   
O27      O      0.477530000000     0.022360000000     0.059890000000    -0.55676    
O28      O      0.497170000000     0.024010000000     0.931440000000    -0.56323    
O29      O      0.573130000000     0.016600000000     0.942540000000    -0.556973   
O30      O      0.553400000000     0.014460000000     0.071390000000    -0.558422   
O31      O      0.558280000000     0.951980000000     0.006640000000    -0.560939   
O32      O      0.568400000000     0.080780000000     0.009430000000    -0.555097   
O33      O      0.036760000000     0.490860000000     0.949610000000    -0.559264   
O34      O      0.035530000000     0.490390000000     0.079790000000    -0.55839    
O35      O      0.971130000000     0.477350000000     0.014170000000    -0.562316   
O36      O      0.099330000000     0.503250000000     0.014350000000    -0.565753   
O37      O      0.084010000000     0.577430000000     0.020780000000    -0.555427   
O38      O      0.955680000000     0.551510000000     0.008050000000    -0.557819   
O39      O      0.013540000000     0.563160000000     0.079600000000    -0.558081   
O40      O      0.024650000000     0.565890000000     0.950100000000    -0.559204   
O41      O      0.517420000000     0.450530000000     0.989950000000    -0.563007   
O42      O      0.524000000000     0.578620000000     0.977460000000    -0.561352   
O43      O      0.586990000000     0.511340000000     0.978500000000    -0.555198   
O44      O      0.456200000000     0.517940000000     0.989570000000    -0.5598     
O45      O      0.463580000000     0.529180000000     0.064850000000    -0.555893   
O46      O      0.593300000000     0.513580000000     0.054720000000    -0.559932   
O47      O      0.535700000000     0.585620000000     0.052700000000    -0.551685   
O48      O      0.522390000000     0.457130000000     0.066020000000    -0.552455   
O49      O      0.873760000000     0.427170000000     0.977400000000    -0.294045   
O50      O      0.191510000000     0.625390000000     0.999620000000    -0.294181   
O51      O      0.442450000000     0.856790000000     0.026100000000    -0.286179   
O52      O      0.444670000000     0.346390000000     0.016170000000    -0.295758   
O53      O      0.615470000000     0.044610000000     0.834310000000    -0.293776   
O54      O      0.578410000000     0.999210000000     0.326440000000    -0.296546   
O55      O      0.020250000000     0.422710000000     0.695880000000    -0.290101   
O56      O      0.937410000000     0.457710000000     0.341160000000    -0.294867   
O57      O      0.190500000000     0.010330000000     0.577480000000    -0.294649   
O58      O      0.824940000000     0.970740000000     0.571710000000    -0.29416    
O59      O      0.004450000000     0.654080000000     0.597390000000    -0.295423   
O60      O      0.989160000000     0.322830000000     0.588540000000    -0.294065   
V1       V      0.011720000000     0.987870000000     0.471030000000     1.40433    
V2       V      0.011560000000     0.988000000000     0.553660000000     1.38999    
V3       V      0.955760000000     0.487000000000     0.517370000000     1.39543    
V4       V      0.038870000000     0.491280000000     0.517870000000     1.39879    
V5       V      0.522920000000     0.966170000000     0.499110000000     1.3909     
V6       V      0.507040000000     0.046360000000     0.505100000000     1.39128    
V7       V      0.484410000000     0.022960000000     0.995010000000     1.39366    
V8       V      0.566400000000     0.015880000000     0.007730000000     1.38622    
V9       V      0.036120000000     0.487420000000     0.014650000000     1.39942    
V10      V      0.018900000000     0.567560000000     0.014830000000     1.3826     
V11      V      0.521050000000     0.514310000000     0.980840000000     1.3971     
V12      V      0.528940000000     0.521700000000     0.062660000000     1.37721    


