data_structure

_audit_creation_method RASPA-1.0
_audit_creation_date 2023-5-25
_audit_author_name 'Poobodin Mano'

_cell_length_a    28.4826
_cell_length_b    29.3015
_cell_length_c    29.098
_cell_angle_alpha 90
_cell_angle_beta  89.9998
_cell_angle_gamma 90
_cell_volume      24284.7

_symmetry_cell_setting          triclinic
_symmetry_space_group_name_Hall 'P 1'
_symmetry_space_group_name_H-M  'P 1'
_symmetry_Int_Tables_number     1

_symmetry_equiv_pos_as_xyz 'x,y,z'

loop_
_atom_site_label
_atom_site_type_symbol
_atom_site_fract_x
_atom_site_fract_y
_atom_site_fract_z
_atom_site_charge
C1       C      0.045520000000     0.112750000000     0.513990000000     0.476868   
C2       C      0.025640000000     0.941040000000     0.510450000000     0.476026   
C3       C      0.947890000000     0.036960000000     0.527720000000     0.475973   
C4       C      0.121740000000     0.016190000000     0.497460000000     0.474307   
C5       C      0.018760000000     0.441200000000     0.545660000000     0.474984   
C6       C      0.013270000000     0.613500000000     0.533690000000     0.481572   
C7       C      0.018300000000     0.522410000000     0.452820000000     0.478879   
C8       C      0.014930000000     0.532460000000     0.626350000000     0.481067   
C9       C      0.507780000000     0.982820000000     0.563340000000     0.474086   
C10      C      0.551970000000     0.974140000000     0.394770000000     0.476391   
C11      C      0.615550000000     0.992630000000     0.499260000000     0.476166   
C12      C      0.445260000000     0.964920000000     0.457510000000     0.476486   
C13      C      0.507240000000     0.105800000000     0.985930000000     0.474386   
C14      C      0.511210000000     0.932810000000     0.982450000000     0.474078   
C15      C      0.512330000000     0.017600000000     0.070890000000     0.474373   
C16      C      0.507360000000     0.021110000000     0.896740000000     0.472626   
C17      C      0.011760000000     0.488810000000     0.953820000000     0.47885    
C18      C      0.045800000000     0.486430000000     0.124530000000     0.476978   
C19      C      0.941770000000     0.487790000000     0.054420000000     0.479463   
C20      C      0.116780000000     0.488540000000     0.023190000000     0.475313   
C21      C      0.528620000000     0.432400000000     0.030350000000     0.474362   
C22      C      0.531670000000     0.605320000000     0.027470000000     0.476644   
C23      C      0.614410000000     0.518200000000     0.053810000000     0.477001   
C24      C      0.444240000000     0.520530000000     0.004130000000     0.47442    
C25      C      0.868370000000     0.448010000000     0.076730000000     0.0175021  
C26      C      0.695270000000     0.543990000000     0.039550000000     0.0170619  
C27      C      0.675410000000     0.496250000000     0.110150000000    -0.0359057  
C28      C      0.737610000000     0.514030000000     0.029780000000    -0.0981076  
C29      C      0.828830000000     0.461850000000     0.110230000000    -0.108077   
C30      C      0.720170000000     0.467140000000     0.101970000000    -0.0753988  
C31      C      0.800540000000     0.500110000000     0.088980000000     0.0339176  
C32      C      0.755830000000     0.493640000000     0.074070000000     0.0224604  
C33      C      0.866910000000     0.527570000000     0.042030000000     0.019043   
C34      C      0.829070000000     0.541490000000     0.076070000000    -0.106335   
C35      C      0.682590000000     0.531510000000     0.147430000000     0.30518    
C36      C      0.190100000000     0.449080000000     0.999410000000     0.0166244  
C37      C      0.365050000000     0.550890000000     0.018030000000     0.0184089  
C38      C      0.380760000000     0.497990000000     0.950490000000    -0.0359519  
C39      C      0.323260000000     0.522200000000     0.032600000000    -0.0986096  
C40      C      0.227240000000     0.462390000000     0.963070000000    -0.107086   
C41      C      0.335790000000     0.470410000000     0.962690000000    -0.0752464  
C42      C      0.255600000000     0.502450000000     0.980630000000     0.0312097  
C43      C      0.302040000000     0.498940000000     0.991060000000     0.0228068  
C44      C      0.191750000000     0.529780000000     0.030990000000     0.0184421  
C45      C      0.226460000000     0.543420000000     0.993750000000    -0.105486   
C46      C      0.372350000000     0.530960000000     0.911400000000     0.303047   
C47      C      0.553340000000     0.860370000000     0.966720000000     0.0178252  
C48      C      0.512840000000     0.679120000000     0.063930000000     0.0171001  
C49      C      0.566160000000     0.675160000000     0.993980000000    -0.0381135  
C50      C      0.488170000000     0.721290000000     0.044260000000    -0.0996611  
C51      C      0.564990000000     0.821650000000     0.000110000000    -0.105352   
C52      C      0.544600000000     0.719870000000     0.975920000000    -0.0741487  
C53      C      0.521430000000     0.794310000000     0.012280000000     0.025707   
C54      C      0.521290000000     0.747750000000     0.013490000000     0.0233341  
C55      C      0.469110000000     0.859770000000     0.993410000000     0.0179939  
C56      C      0.480180000000     0.822520000000     0.028830000000    -0.105983   
C57      C      0.613480000000     0.683150000000     0.016070000000     0.30218    
C58      C      0.505190000000     0.359940000000     0.067680000000     0.0175658  
C59      C      0.545800000000     0.180070000000     0.970790000000     0.0160607  
C60      C      0.462360000000     0.176420000000     0.001730000000    -0.0364224  
C61      C      0.557440000000     0.218130000000     0.004700000000    -0.098334   
C62      C      0.479440000000     0.318650000000     0.047050000000    -0.105804   
C63      C      0.473410000000     0.216220000000     0.034920000000    -0.0753804  
C64      C      0.512310000000     0.291480000000     0.016470000000     0.0285535  
C65      C      0.513720000000     0.244930000000     0.017030000000     0.0234901  
C66      C      0.562320000000     0.360130000000     0.001490000000     0.0178389  
C67      C      0.537430000000     0.319280000000     0.980020000000    -0.104417   
C68      C      0.435620000000     0.192330000000     0.959790000000     0.303206   
C69      C      0.506000000000     0.945480000000     0.639340000000     0.0192223  
C70      C      0.467500000000     0.042470000000     0.824070000000     0.0147856  
C71      C      0.550080000000     0.009520000000     0.824210000000    -0.0353392  
C72      C      0.456640000000     0.017150000000     0.779020000000    -0.0972493  
C73      C      0.530330000000     0.962590000000     0.682660000000    -0.105048   
C74      C      0.538140000000     0.980430000000     0.781920000000    -0.0767017  
C75      C      0.500380000000     0.998460000000     0.706100000000     0.0245129  
C76      C      0.500420000000     0.002730000000     0.752910000000     0.0250239  
C77      C      0.465760000000     0.020770000000     0.627940000000     0.0162212  
C78      C      0.483190000000     0.037090000000     0.675310000000    -0.103364   
C79      C      0.577820000000     0.051890000000     0.812060000000     0.30429    
C80      C      0.476520000000     0.995380000000     0.145070000000     0.0177636  
C81      C      0.583850000000     0.010110000000     0.324500000000     0.0168764  
C82      C      0.549730000000     0.930330000000     0.322240000000    -0.0350243  
C83      C      0.553560000000     0.024680000000     0.283820000000    -0.0978692  
C84      C      0.497750000000     0.962910000000     0.181040000000    -0.105757   
C85      C      0.518660000000     0.943740000000     0.280750000000    -0.0751137  
C86      C      0.535480000000     0.987560000000     0.208170000000     0.0266     
C87      C      0.539220000000     0.983980000000     0.254710000000     0.0245343  
C88      C      0.551540000000     0.041090000000     0.142860000000     0.018242   
C89      C      0.573260000000     0.010300000000     0.179440000000    -0.104077   
C90      C      0.593760000000     0.905290000000     0.307800000000     0.302674   
C91      C      0.974810000000     0.552080000000     0.699550000000     0.019473   
C92      C      0.011600000000     0.449090000000     0.879340000000     0.017239   
C93      C      0.972660000000     0.526540000000     0.888070000000    -0.0383588  
C94      C      0.035350000000     0.464350000000     0.834930000000    -0.0995168  
C95      C      0.960980000000     0.519630000000     0.738590000000    -0.106312   
C96      C      0.990760000000     0.540340000000     0.840100000000    -0.0732012  
C97      C      0.003790000000     0.502150000000     0.764290000000     0.0264793  
C98      C      0.005480000000     0.499790000000     0.810950000000     0.0222847  
C99      C      0.056640000000     0.519310000000     0.699340000000     0.0201862  
C100     C      0.042630000000     0.483050000000     0.734490000000    -0.10741    
C101     C      0.921560000000     0.512760000000     0.886520000000     0.301119   
C102     C      0.076170000000     0.524410000000     0.194600000000     0.0192523  
C103     C      0.979800000000     0.501860000000     0.379890000000     0.0169885  
C104     C      0.056500000000     0.546530000000     0.380800000000    -0.0386065  
C105     C      0.997580000000     0.472720000000     0.339840000000    -0.0991174  
C106     C      0.046080000000     0.539100000000     0.235440000000    -0.105577   
C107     C      0.072580000000     0.520600000000     0.337630000000    -0.0734467  
C108     C      0.031920000000     0.498250000000     0.264480000000     0.0256408  
C109     C      0.031850000000     0.500040000000     0.311220000000     0.0218162  
C110     C      0.042950000000     0.444990000000     0.198510000000     0.0183775  
C111     C      0.010560000000     0.458570000000     0.238330000000    -0.106393   
C112     C      0.039250000000     0.593980000000     0.369420000000     0.300434   
C113     C      0.374430000000     0.916200000000     0.459920000000     0.0193251  
C114     C      0.190920000000     0.022730000000     0.446370000000     0.0159701  
C115     C      0.197290000000     0.986370000000     0.525900000000    -0.0374102  
C116     C      0.221680000000     0.984850000000     0.426590000000    -0.0980358  
C117     C      0.330450000000     0.930410000000     0.486560000000    -0.106308   
C118     C      0.228640000000     0.948350000000     0.505640000000    -0.0758306  
C119     C      0.301460000000     0.964320000000     0.459030000000     0.0296848  
C120     C      0.253800000000     0.965630000000     0.463240000000     0.0206573  
C121     C      0.373950000000     0.989090000000     0.415120000000     0.0199978  
C122     C      0.328140000000     0.004210000000     0.437920000000    -0.105879   
C123     C      0.225420000000     0.022110000000     0.551340000000     0.305461   
C124     C      0.871540000000     0.069220000000     0.503830000000     0.0195358  
C125     C      0.691810000000     0.963280000000     0.526470000000     0.0167819  
C126     C      0.684440000000     0.042220000000     0.489260000000    -0.0391261  
C127     C      0.730320000000     0.981560000000     0.558530000000    -0.100105   
C128     C      0.828340000000     0.041660000000     0.490130000000    -0.105191   
C129     C      0.725190000000     0.058840000000     0.519480000000    -0.0751909  
C130     C      0.804000000000     0.021810000000     0.532080000000     0.0266773  
C131     C      0.756260000000     0.019930000000     0.534940000000     0.02235    
C132     C      0.878630000000     0.025570000000     0.577890000000     0.0179503  
C133     C      0.835600000000     0.996350000000     0.565420000000    -0.105877   
C134     C      0.700230000000     0.033990000000     0.440390000000     0.302437   
C135     C      0.051220000000     0.867240000000     0.542230000000     0.0190262  
C136     C      0.968030000000     0.682460000000     0.514300000000     0.0184316  
C137     C      0.049260000000     0.687940000000     0.551620000000    -0.0382944  
C138     C      0.978820000000     0.724550000000     0.484930000000    -0.099209   
C139     C      0.023040000000     0.826190000000     0.558520000000    -0.107105   
C140     C      0.057810000000     0.732340000000     0.524780000000    -0.0744883  
C141     C      0.003820000000     0.800330000000     0.517670000000     0.0287748  
C142     C      0.012330000000     0.755120000000     0.510680000000     0.0213699  
C143     C      0.002650000000     0.870630000000     0.469390000000     0.0177554  
C144     C      0.974290000000     0.828810000000     0.485210000000    -0.107219   
C145     C      0.037860000000     0.697470000000     0.601400000000     0.301219   
C146     C      0.034590000000     0.186960000000     0.475460000000     0.0193077  
C147     C      0.060310000000     0.371120000000     0.570090000000     0.0174665  
C148     C      0.977240000000     0.367780000000     0.538500000000    -0.0340718  
C149     C      0.073540000000     0.328230000000     0.543070000000    -0.0987388  
C150     C      0.005220000000     0.226770000000     0.493340000000    -0.106138   
C151     C      0.990350000000     0.325800000000     0.509420000000    -0.0756466  
C152     C      0.033290000000     0.253410000000     0.528450000000     0.0253404  
C153     C      0.030830000000     0.299780000000     0.530760000000     0.0256581  
C154     C      0.078900000000     0.182290000000     0.550130000000     0.0167275  
C155     C      0.054010000000     0.225390000000     0.567480000000    -0.103011   
C156     C      0.951580000000     0.354970000000     0.582170000000     0.302173   
H1       H      0.807340000000     0.431170000000     0.117890000000     0.0459456  
H2       H      0.707200000000     0.574410000000     0.059170000000     0.0423363  
H3       H      0.849760000000     0.517200000000     0.009350000000     0.031869   
H4       H      0.807420000000     0.569870000000     0.062260000000     0.0527426  
H5       H      0.764250000000     0.533620000000     0.010250000000     0.0461283  
H6       H      0.734330000000     0.456090000000     0.135800000000     0.0454144  
H7       H      0.892180000000     0.423590000000     0.094430000000     0.0321666  
H8       H      0.680700000000     0.556660000000     0.006470000000     0.0446673  
H9       H      0.846280000000     0.554970000000     0.107560000000     0.0598788  
H10      H      0.710520000000     0.435870000000     0.082520000000     0.0436328  
H11      H      0.889090000000     0.557800000000     0.034230000000     0.0415267  
H12      H      0.844520000000     0.473960000000     0.143020000000     0.0546877  
H13      H      0.726480000000     0.485610000000     0.006920000000     0.0538627  
H14      H      0.647780000000     0.472140000000     0.122280000000     0.0558464  
H15      H      0.852450000000     0.430060000000     0.046860000000     0.0302745  
H16      H      0.727780000000     0.578800000000     0.172990000000     0.180204   
H17      H      0.249190000000     0.431940000000     0.955770000000     0.0460842  
H18      H      0.352150000000     0.579510000000     0.996340000000     0.037449   
H19      H      0.211640000000     0.520850000000     0.062640000000     0.023936   
H20      H      0.247740000000     0.573280000000     0.004550000000     0.0491249  
H21      H      0.298250000000     0.543450000000     0.052410000000     0.0437047  
H22      H      0.319460000000     0.458040000000     0.930290000000     0.046551   
H23      H      0.166000000000     0.423350000000     0.984130000000     0.0329759  
H24      H      0.381480000000     0.566410000000     0.048980000000     0.0331111  
H25      H      0.206430000000     0.554780000000     0.963000000000     0.0577519  
H26      H      0.345860000000     0.439930000000     0.983180000000     0.0438467  
H27      H      0.169460000000     0.559750000000     0.039440000000     0.0341013  
H28      H      0.209300000000     0.472360000000     0.930670000000     0.0540371  
H29      H      0.335660000000     0.495320000000     0.056680000000     0.0529921  
H30      H      0.407360000000     0.472660000000     0.938680000000     0.0559046  
H31      H      0.208320000000     0.432740000000     0.028940000000     0.0278937  
H32      H      0.325650000000     0.575530000000     0.883570000000     0.177194   
H33      H      0.594130000000     0.800960000000     0.986020000000     0.0562108  
H34      H      0.540410000000     0.690340000000     0.088510000000     0.0454969  
H35      H      0.455800000000     0.843280000000     0.961520000000     0.0279003  
H36      H      0.447780000000     0.801850000000     0.033070000000     0.0443997  
H37      H      0.476410000000     0.742110000000     0.074040000000     0.0456227  
H38      H      0.571150000000     0.738810000000     0.955680000000     0.0443886  
H39      H      0.584750000000     0.882470000000     0.962460000000     0.0359185  
H40      H      0.486560000000     0.658930000000     0.083600000000     0.0348857  
H41      H      0.488960000000     0.838360000000     0.062470000000     0.0529003  
H42      H      0.516670000000     0.710780000000     0.950840000000     0.0478553  
H43      H      0.440560000000     0.881600000000     0.007400000000     0.0337056  
H44      H      0.578720000000     0.836980000000     0.032370000000     0.0610533  
H45      H      0.456790000000     0.710710000000     0.024200000000     0.050498   
H46      H      0.572500000000     0.653390000000     0.963260000000     0.0622782  
H47      H      0.545480000000     0.845020000000     0.932620000000     0.0260468  
H48      H      0.679120000000     0.656860000000     0.022760000000     0.178177   
H49      H      0.466270000000     0.298110000000     0.076420000000     0.0447473  
H50      H      0.536360000000     0.195820000000     0.937290000000     0.0416585  
H51      H      0.592190000000     0.347230000000     0.022430000000     0.0251385  
H52      H      0.562730000000     0.299670000000     0.958990000000     0.0491696  
H53      H      0.586620000000     0.239090000000     0.991100000000     0.044481   
H54      H      0.440650000000     0.236260000000     0.039690000000     0.0446673  
H55      H      0.479160000000     0.381420000000     0.086220000000     0.0341382  
H56      H      0.577870000000     0.159270000000     0.964930000000     0.038431   
H57      H      0.510560000000     0.332180000000     0.955530000000     0.0610371  
H58      H      0.483470000000     0.202170000000     0.069020000000     0.0430173  
H59      H      0.577370000000     0.381580000000     0.973650000000     0.0360571  
H60      H      0.448880000000     0.330450000000     0.026480000000     0.0554057  
H61      H      0.571150000000     0.202310000000     0.036730000000     0.0509129  
H62      H      0.438850000000     0.153000000000     0.021230000000     0.0576548  
H63      H      0.531220000000     0.347440000000     0.093260000000     0.0276477  
H64      H      0.430560000000     0.242350000000     0.911650000000     0.177869   
H65      H      0.535810000000     0.932330000000     0.705070000000     0.0447362  
H66      H      0.476730000000     0.078320000000     0.815470000000     0.0434714  
H67      H      0.429620000000     0.007070000000     0.632340000000     0.0279441  
H68      H      0.454960000000     0.057710000000     0.691160000000     0.0494571  
H69      H      0.432600000000     0.038660000000     0.758450000000     0.0469137  
H70      H      0.571260000000     0.975200000000     0.762350000000     0.0444739  
H71      H      0.529070000000     0.919540000000     0.622990000000     0.0353381  
H72      H      0.435010000000     0.043890000000     0.845190000000     0.0399707  
H73      H      0.513280000000     0.060610000000     0.669740000000     0.0616939  
H74      H      0.525370000000     0.946390000000     0.793300000000     0.0446445  
H75      H      0.463220000000     0.050570000000     0.604430000000     0.0370677  
H76      H      0.565130000000     0.977370000000     0.673770000000     0.0558991  
H77      H      0.436780000000     0.985630000000     0.787620000000     0.0507448  
H78      H      0.573310000000     0.987680000000     0.845780000000     0.0588873  
H79      H      0.472610000000     0.928310000000     0.649150000000     0.0273246  
H80      H      0.633270000000     0.090920000000     0.831600000000     0.177615   
H81      H      0.468600000000     0.951000000000     0.203390000000     0.0443544  
H82      H      0.618730000000     0.999430000000     0.311150000000     0.0407628  
H83      H      0.536000000000     0.071240000000     0.160410000000     0.0243576  
H84      H      0.599210000000     0.029980000000     0.199680000000     0.0484569  
H85      H      0.572200000000     0.051710000000     0.264500000000     0.044655   
H86      H      0.514670000000     0.913290000000     0.258230000000     0.0468278  
H87      H      0.451660000000     0.975760000000     0.123190000000     0.0324326  
H88      H      0.589920000000     0.039960000000     0.347340000000     0.0415411  
H89      H      0.593530000000     0.982980000000     0.161850000000     0.0600657  
H90      H      0.483150000000     0.953390000000     0.293300000000     0.0429932  
H91      H      0.579640000000     0.053890000000     0.119680000000     0.0336614  
H92      H      0.513390000000     0.932760000000     0.163630000000     0.0548912  
H93      H      0.521010000000     0.040730000000     0.297340000000     0.0521432  
H94      H      0.528400000000     0.906250000000     0.343270000000     0.0566767  
H95      H      0.456300000000     0.022420000000     0.163210000000     0.0270929  
H96      H      0.643670000000     0.899780000000     0.258190000000     0.179981   
H97      H      0.934660000000     0.536380000000     0.760960000000     0.0568956  
H98      H      0.978580000000     0.430690000000     0.870840000000     0.0436167  
H99      H      0.071610000000     0.549250000000     0.717780000000     0.0298174  
H100     H      0.074670000000     0.474250000000     0.754340000000     0.0454484  
H101     H      0.039940000000     0.433410000000     0.813250000000     0.0459216  
H102     H      0.964730000000     0.562900000000     0.823200000000     0.0452926  
H103     H      0.943710000000     0.558730000000     0.677460000000     0.0392736  
H104     H      0.035340000000     0.424570000000     0.897000000000     0.0339542  
H105     H      0.030030000000     0.451830000000     0.716620000000     0.0565394  
H106     H      0.022590000000     0.561780000000     0.844970000000     0.0456459  
H107     H      0.084650000000     0.504830000000     0.677090000000     0.0360244  
H108     H      0.942960000000     0.489620000000     0.723250000000     0.0638627  
H109     H      0.070510000000     0.478940000000     0.842670000000     0.0500218  
H110     H      0.974680000000     0.557690000000     0.909870000000     0.0603725  
H111     H      0.985390000000     0.585180000000     0.715140000000     0.0293236  
H112     H      0.859670000000     0.517410000000     0.920830000000     0.176252   
H113     H      0.064590000000     0.566240000000     0.254710000000     0.0563695  
H114     H      0.957680000000     0.529990000000     0.366130000000     0.0431156  
H115     H      0.075950000000     0.430590000000     0.212960000000     0.0263304  
H116     H      0.006160000000     0.427900000000     0.260370000000     0.043882   
H117     H      0.966310000000     0.462180000000     0.319600000000     0.0449846  
H118     H      0.095980000000     0.542550000000     0.316740000000     0.0427886  
H119     H      0.082010000000     0.554120000000     0.171540000000     0.0338262  
H120     H      0.957080000000     0.480120000000     0.401980000000     0.0342606  
H121     H      0.975580000000     0.468690000000     0.224800000000     0.0531514  
H122     H      0.095080000000     0.491700000000     0.348960000000     0.0445589  
H123     H      0.025410000000     0.417780000000     0.178150000000     0.0330497  
H124     H      0.013430000000     0.555060000000     0.222030000000     0.0619595  
H125     H      0.015230000000     0.441580000000     0.353170000000     0.0486467  
H126     H      0.088320000000     0.550850000000     0.402570000000     0.0603966  
H127     H      0.111050000000     0.513620000000     0.207920000000     0.0244307  
H128     H      0.039100000000     0.659680000000     0.391730000000     0.175468   
H129     H      0.310130000000     0.898780000000     0.493640000000     0.0452283  
H130     H      0.213520000000     0.052850000000     0.453440000000     0.038896   
H131     H      0.364920000000     0.971230000000     0.382560000000     0.0233605  
H132     H      0.307600000000     0.023810000000     0.412400000000     0.0480405  
H133     H      0.240210000000     0.997030000000     0.395470000000     0.0429159  
H134     H      0.252700000000     0.936240000000     0.533070000000     0.0432909  
H135     H      0.396170000000     0.893750000000     0.482200000000     0.0344581  
H136     H      0.164940000000     0.033380000000     0.419960000000     0.0342022  
H137     H      0.336880000000     0.028390000000     0.466080000000     0.0679691  
H138     H      0.206250000000     0.918890000000     0.495620000000     0.043431   
H139     H      0.395100000000     0.019630000000     0.405870000000     0.0329832  
H140     H      0.340800000000     0.946160000000     0.519820000000     0.0581524  
H141     H      0.198360000000     0.956840000000     0.414640000000     0.0506976  
H142     H      0.174540000000     0.969120000000     0.551750000000     0.0586382  
H143     H      0.363550000000     0.896200000000     0.429200000000     0.0265235  
H144     H      0.228500000000     0.058580000000     0.610620000000     0.17721    
H145     H      0.805510000000     0.063160000000     0.468260000000     0.0565919  
H146     H      0.708580000000     0.944690000000     0.497480000000     0.0467967  
H147     H      0.866790000000     0.054940000000     0.599160000000     0.0287055  
H148     H      0.817050000000     0.988360000000     0.598040000000     0.0456968  
H149     H      0.753660000000     0.952450000000     0.567180000000     0.045871   
H150     H      0.744180000000     0.087270000000     0.502570000000     0.0428936  
H151     H      0.890870000000     0.079840000000     0.472390000000     0.0338485  
H152     H      0.670420000000     0.938080000000     0.545950000000     0.0343868  
H153     H      0.847240000000     0.963820000000     0.549400000000     0.0539637  
H154     H      0.709880000000     0.074290000000     0.551020000000     0.0469291  
H155     H      0.903120000000     0.004620000000     0.598910000000     0.0338417  
H156     H      0.839850000000     0.012750000000     0.468110000000     0.0648933  
H157     H      0.714300000000     0.994410000000     0.590870000000     0.0507817  
H158     H      0.658720000000     0.070810000000     0.488240000000     0.0622627  
H159     H      0.859430000000     0.100830000000     0.521360000000     0.025717   
H160     H      0.687530000000     0.051000000000     0.373860000000     0.177402   
H161     H      0.044380000000     0.805180000000     0.582290000000     0.0582518  
H162     H      0.946530000000     0.692990000000     0.544390000000     0.0441732  
H163     H      0.031090000000     0.858970000000     0.445950000000     0.0281587  
H164     H      0.963770000000     0.809950000000     0.453800000000     0.0465807  
H165     H      0.944720000000     0.741360000000     0.477560000000     0.0466085  
H166     H      0.082430000000     0.754870000000     0.543650000000     0.0425646  
H167     H      0.062340000000     0.887400000000     0.572700000000     0.0357339  
H168     H      0.946210000000     0.658840000000     0.493320000000     0.0385786  
H169     H      0.941940000000     0.840180000000     0.503260000000     0.0543346  
H170     H      0.076680000000     0.723360000000     0.492570000000     0.0482616  
H171     H      0.979010000000     0.893470000000     0.449460000000     0.0342921  
H172     H      0.992830000000     0.838680000000     0.579180000000     0.0617097  
H173     H      0.994920000000     0.713960000000     0.451810000000     0.0525278  
H174     H      0.083160000000     0.669040000000     0.551110000000     0.0637701  
H175     H      0.083680000000     0.854670000000     0.525150000000     0.02468    
H176     H      0.057080000000     0.682950000000     0.667020000000     0.177851   
H177     H      0.995750000000     0.248030000000     0.463090000000     0.0443371  
H178     H      0.051130000000     0.360730000000     0.605720000000     0.0372575  
H179     H      0.113130000000     0.192750000000     0.535050000000     0.0274494  
H180     H      0.078620000000     0.244770000000     0.589540000000     0.0481217  
H181     H      0.100530000000     0.309230000000     0.562630000000     0.0449064  
H182     H      0.958410000000     0.304220000000     0.505940000000     0.0453528  
H183     H      0.012780000000     0.167190000000     0.450790000000     0.0335328  
H184     H      0.091620000000     0.393630000000     0.572640000000     0.0339132  
H185     H      0.024550000000     0.214750000000     0.590120000000     0.0594516  
H186     H      0.000870000000     0.337090000000     0.474410000000     0.0429049  
H187     H      0.086670000000     0.159590000000     0.579780000000     0.0370948  
H188     H      0.972410000000     0.213810000000     0.509420000000     0.0554427  
H189     H      0.090550000000     0.338970000000     0.510430000000     0.0508168  
H190     H      0.952500000000     0.388030000000     0.516940000000     0.0564999  
H191     H      0.065390000000     0.200710000000     0.456420000000     0.0268635  
H192     H      0.948730000000     0.309500000000     0.634840000000     0.177577   
N1       N      0.660300000000     0.518880000000     0.067150000000    -0.174571   
N2       N      0.894180000000     0.488450000000     0.059820000000    -0.187324   
N3       N      0.398300000000     0.523000000000     0.991140000000    -0.175843   
N4       N      0.164260000000     0.489560000000     0.016310000000    -0.188388   
N5       N      0.534730000000     0.651920000000     0.027070000000    -0.174334   
N6       N      0.511760000000     0.886130000000     0.982290000000    -0.18781    
N7       N      0.505760000000     0.152500000000     0.987320000000    -0.174828   
N8       N      0.530160000000     0.385780000000     0.031730000000    -0.187896   
N9       N      0.507080000000     0.022040000000     0.849660000000    -0.17435    
N10      N      0.495500000000     0.984210000000     0.608840000000    -0.187151   
N11      N      0.562170000000     0.971410000000     0.348990000000    -0.174256   
N12      N      0.514030000000     0.016960000000     0.117780000000    -0.188244   
N13      N      0.000740000000     0.489040000000     0.908150000000    -0.176336   
N14      N      0.014900000000     0.533890000000     0.673230000000    -0.187115   
N15      N      0.019400000000     0.521470000000     0.405920000000    -0.176318   
N16      N      0.054360000000     0.485490000000     0.170680000000    -0.189168   
N17      N      0.168340000000     0.008130000000     0.489690000000    -0.175578   
N18      N      0.399760000000     0.957250000000     0.444970000000    -0.188858   
N19      N      0.662150000000     0.000310000000     0.507730000000    -0.174303   
N20      N      0.901110000000     0.042990000000     0.535860000000    -0.18847    
N21      N      0.011390000000     0.660050000000     0.530870000000    -0.173854   
N22      N      0.024020000000     0.894510000000     0.508850000000    -0.188867   
N23      N      0.019570000000     0.394720000000     0.549580000000    -0.176433   
N24      N      0.051250000000     0.159050000000     0.514250000000    -0.188063   
O1       O      0.035730000000     0.092700000000     0.476020000000    -0.562465   
O2       O      0.019500000000     0.964360000000     0.473520000000    -0.557673   
O3       O      0.963020000000     0.037120000000     0.486180000000    -0.557726   
O4       O      0.093390000000     0.021310000000     0.463440000000    -0.555432   
O5       O      0.106610000000     0.017430000000     0.538960000000    -0.552324   
O6       O      0.976300000000     0.031540000000     0.561610000000    -0.556653   
O7       O      0.035060000000     0.960950000000     0.548630000000    -0.559746   
O8       O      0.049940000000     0.089730000000     0.551390000000    -0.553103   
O9       O      0.979060000000     0.461890000000     0.544530000000    -0.552137   
O10      O      0.975070000000     0.590350000000     0.531770000000    -0.557637   
O11      O      0.978770000000     0.519470000000     0.473820000000    -0.55611    
O12      O      0.976000000000     0.532790000000     0.603880000000    -0.549371   
O13      O      0.054290000000     0.530080000000     0.605200000000    -0.562456   
O14      O      0.056710000000     0.527290000000     0.475390000000    -0.557613   
O15      O      0.053010000000     0.593370000000     0.538830000000    -0.550013   
O16      O      0.057400000000     0.463750000000     0.543350000000    -0.556808   
O17      O      0.521610000000     0.944900000000     0.545970000000    -0.562396   
O18      O      0.549430000000     0.937460000000     0.418860000000    -0.548324   
O19      O      0.600070000000     0.951500000000     0.496560000000    -0.551906   
O20      O      0.471250000000     0.931170000000     0.469570000000    -0.558726   
O21      O      0.461690000000     0.005710000000     0.456870000000    -0.556366   
O22      O      0.588000000000     0.026650000000     0.492420000000    -0.552156   
O23      O      0.544050000000     0.013260000000     0.413050000000    -0.550675   
O24      O      0.505300000000     0.018950000000     0.538270000000    -0.549279   
O25      O      0.468900000000     0.082960000000     0.989020000000    -0.549174   
O26      O      0.471680000000     0.953860000000     0.982210000000    -0.558842   
O27      O      0.472570000000     0.014330000000     0.050290000000    -0.554486   
O28      O      0.468630000000     0.022360000000     0.919530000000    -0.545724   
O29      O      0.546860000000     0.019000000000     0.917810000000    -0.551344   
O30      O      0.550550000000     0.021680000000     0.047850000000    -0.558443   
O31      O      0.550020000000     0.955250000000     0.983020000000    -0.553765   
O32      O      0.546800000000     0.085120000000     0.981590000000    -0.552358   
O33      O      0.017560000000     0.450530000000     0.974500000000    -0.55789    
O34      O      0.040960000000     0.448720000000     0.102600000000    -0.560144   
O35      O      0.963620000000     0.449540000000     0.050840000000    -0.551677   
O36      O      0.095120000000     0.450140000000     0.026150000000    -0.553039   
O37      O      0.094410000000     0.526280000000     0.027700000000    -0.564378   
O38      O      0.963980000000     0.525730000000     0.051300000000    -0.56167    
O39      O      0.042450000000     0.524890000000     0.103580000000    -0.559441   
O40      O      0.015520000000     0.526690000000     0.975730000000    -0.555655   
O41      O      0.542800000000     0.453440000000     0.994220000000    -0.557885   
O42      O      0.540100000000     0.582790000000     0.990520000000    -0.55064    
O43      O      0.604340000000     0.520690000000     0.010900000000    -0.55463    
O44      O      0.476550000000     0.515660000000     0.973650000000    -0.544482   
O45      O      0.454610000000     0.523940000000     0.046860000000    -0.560908   
O46      O      0.581840000000     0.515580000000     0.084240000000    -0.545667   
O47      O      0.521440000000     0.584430000000     0.065020000000    -0.550763   
O48      O      0.514020000000     0.454850000000     0.065520000000    -0.555462   
O49      O      0.722890000000     0.555720000000     0.149700000000    -0.343442   
O50      O      0.651050000000     0.539190000000     0.174830000000    -0.245057   
O51      O      0.331320000000     0.553870000000     0.908050000000    -0.344135   
O52      O      0.403560000000     0.538090000000     0.883480000000    -0.246297   
O53      O      0.648620000000     0.653130000000     0.008580000000    -0.343928   
O54      O      0.619700000000     0.715540000000     0.041850000000    -0.249684   
O55      O      0.446940000000     0.232000000000     0.938850000000    -0.343786   
O56      O      0.404570000000     0.168330000000     0.943790000000    -0.248559   
O57      O      0.615140000000     0.063730000000     0.838070000000    -0.34122    
O58      O      0.565970000000     0.076180000000     0.779920000000    -0.250551   
O59      O      0.615120000000     0.915100000000     0.267530000000    -0.342948   
O60      O      0.611060000000     0.877020000000     0.333630000000    -0.242184   
O61      O      0.892460000000     0.526080000000     0.920590000000    -0.345533   
O62      O      0.906710000000     0.488560000000     0.855510000000    -0.250535   
O63      O      0.050250000000     0.629030000000     0.397570000000    -0.34326    
O64      O      0.013970000000     0.600570000000     0.336100000000    -0.252963   
O65      O      0.211560000000     0.035450000000     0.593630000000    -0.34258    
O66      O      0.259760000000     0.039850000000     0.533560000000    -0.254726   
O67      O      0.678610000000     0.056020000000     0.405550000000    -0.345422   
O68      O      0.731710000000     0.006840000000     0.432110000000    -0.249806   
O69      O      0.063870000000     0.677910000000     0.634820000000    -0.344011   
O70      O      0.004690000000     0.721940000000     0.611630000000    -0.252196   
O71      O      0.964410000000     0.317750000000     0.606530000000    -0.343768   
O72      O      0.919990000000     0.379440000000     0.596340000000    -0.245974   
V1       V      0.027410000000     0.028880000000     0.471760000000     1.39419    
V2       V      0.042320000000     0.025000000000     0.553210000000     1.40101    
V3       V      0.974040000000     0.526040000000     0.538560000000     1.40417    
V4       V      0.058520000000     0.528700000000     0.540590000000     1.40509    
V5       V      0.536120000000     0.938250000000     0.482960000000     1.40578    
V6       V      0.524250000000     0.019220000000     0.475090000000     1.38571    
V7       V      0.467270000000     0.018330000000     0.985220000000     1.38891    
V8       V      0.551700000000     0.020310000000     0.982560000000     1.39994    
V9       V      0.029370000000     0.446650000000     0.038490000000     1.38482    
V10      V      0.029160000000     0.528900000000     0.039650000000     1.41107    
V11      V      0.541650000000     0.518020000000     0.989270000000     1.40125    
V12      V      0.517100000000     0.519700000000     0.068420000000     1.3968     


