data_structure

_audit_creation_method RASPA-1.0
_audit_creation_date 2023-5-19
_audit_author_name 'Poobodin Mano'

_cell_length_a    28.7386
_cell_length_b    28.4099
_cell_length_c    28.7839
_cell_angle_alpha 90
_cell_angle_beta  89.9998
_cell_angle_gamma 90
_cell_volume      23500.9

_symmetry_cell_setting          triclinic
_symmetry_space_group_name_Hall 'P 1'
_symmetry_space_group_name_H-M  'P 1'
_symmetry_Int_Tables_number     1

_symmetry_equiv_pos_as_xyz 'x,y,z'

loop_
_atom_site_label
_atom_site_type_symbol
_atom_site_fract_x
_atom_site_fract_y
_atom_site_fract_z
_atom_site_charge
C1       C      0.037420000000     0.116330000000     0.477110000000     0.47361    
C2       C      0.008260000000     0.941980000000     0.500860000000     0.473689   
C3       C      0.936090000000     0.043540000000     0.492730000000     0.47639    
C4       C      0.109910000000     0.015260000000     0.484820000000     0.474927   
C5       C      0.032640000000     0.446820000000     0.481210000000     0.473796   
C6       C      0.985990000000     0.613480000000     0.523220000000     0.475392   
C7       C      0.005690000000     0.549390000000     0.416550000000     0.474529   
C8       C      0.012610000000     0.510410000000     0.588180000000     0.474195   
C9       C      0.515590000000     0.971350000000     0.613780000000     0.474746   
C10      C      0.537090000000     0.993900000000     0.440550000000     0.473865   
C11      C      0.613820000000     0.982030000000     0.538910000000     0.475935   
C12      C      0.439170000000     0.982860000000     0.516010000000     0.474586   
C13      C      0.553270000000     0.123440000000     0.011990000000     0.474804   
C14      C      0.523990000000     0.948920000000     0.032440000000     0.475214   
C15      C      0.529590000000     0.048010000000     0.109150000000     0.474273   
C16      C      0.547070000000     0.024660000000     0.935500000000     0.474034   
C17      C      0.012860000000     0.509460000000     0.917580000000     0.474421   
C18      C      0.992600000000     0.547620000000     0.088240000000     0.475166   
C19      C      0.915040000000     0.533540000000     0.991800000000     0.473904   
C20      C      0.089600000000     0.523120000000     0.014790000000     0.473998   
C21      C      0.525870000000     0.452550000000     0.041860000000     0.474442   
C22      C      0.476840000000     0.621410000000     0.069740000000     0.476134   
C23      C      0.585480000000     0.563360000000     0.047220000000     0.474128   
C24      C      0.417940000000     0.510550000000     0.064400000000     0.47506    
C25      C      0.664550000000     0.568580000000     0.080740000000     0.0186315  
C26      C      0.844530000000     0.573580000000     0.960580000000     0.0161225  
C27      C      0.837800000000     0.497210000000     0.003200000000     0.0187935  
C28      C      0.801810000000     0.593040000000     0.986550000000    -0.102061   
C29      C      0.704540000000     0.538710000000     0.062330000000    -0.102287   
C30      C      0.800280000000     0.516850000000     0.035170000000    -0.102875   
C31      C      0.726650000000     0.561850000000     0.020130000000     0.0166393  
C32      C      0.772840000000     0.555070000000     0.010520000000     0.0172235  
C33      C      0.648880000000     0.602630000000     0.002470000000     0.0165733  
C34      C      0.693080000000     0.579410000000     0.982760000000    -0.101864   
C35      C      0.163010000000     0.561670000000     0.037620000000     0.018168   
C36      C      0.350070000000     0.467150000000     0.033640000000     0.0185103  
C37      C      0.345390000000     0.508870000000     0.110350000000     0.017903   
C38      C      0.304350000000     0.489380000000     0.017740000000    -0.10208    
C39      C      0.199170000000     0.547440000000     0.074320000000    -0.104367   
C40      C      0.301110000000     0.534900000000     0.095200000000    -0.102959   
C41      C      0.228130000000     0.507170000000     0.055710000000     0.0188356  
C42      C      0.275380000000     0.506580000000     0.058570000000     0.0173504  
C43      C      0.162650000000     0.478950000000     0.005180000000     0.0169349  
C44      C      0.200670000000     0.464700000000     0.039520000000    -0.103066   
C45      C      0.476850000000     0.692020000000     0.120190000000     0.0178076  
C46      C      0.475900000000     0.878910000000     0.015450000000     0.0173184  
C47      C      0.551180000000     0.871250000000     0.060070000000     0.0173383  
C48      C      0.452340000000     0.844710000000     0.048860000000    -0.103196   
C49      C      0.507160000000     0.734500000000     0.107660000000    -0.102745   
C50      C      0.528010000000     0.837230000000     0.094460000000    -0.103831   
C51      C      0.483410000000     0.764420000000     0.070840000000     0.0170473  
C52      C      0.488040000000     0.812190000000     0.070570000000     0.0184377  
C53      C      0.437070000000     0.694260000000     0.043150000000     0.0182497  
C54      C      0.464420000000     0.738050000000     0.028780000000    -0.102273   
C55      C      0.529480000000     0.199360000000     0.977830000000     0.0174724  
C56      C      0.560570000000     0.378970000000     0.071540000000     0.0173486  
C57      C      0.519730000000     0.381580000000     0.993280000000     0.016877   
C58      C      0.596990000000     0.344910000000     0.051540000000    -0.104097   
C59      C      0.521800000000     0.247720000000     0.999780000000    -0.102821   
C60      C      0.555550000000     0.347190000000     0.973920000000    -0.103303   
C61      C      0.567260000000     0.269810000000     0.015620000000     0.0190619  
C62      C      0.574750000000     0.317050000000     0.012640000000     0.0183699  
C63      C      0.606310000000     0.191370000000     0.019070000000     0.018593   
C64      C      0.598770000000     0.238330000000     0.044110000000    -0.10415    
C65      C      0.529020000000     0.925350000000     0.686040000000     0.0152339  
C66      C      0.517190000000     0.041720000000     0.856950000000     0.0188104  
C67      C      0.589960000000     0.993200000000     0.866980000000     0.01548    
C68      C      0.496780000000     0.004780000000     0.824760000000    -0.10327    
C69      C      0.562720000000     0.942310000000     0.724490000000    -0.102921   
C70      C      0.571860000000     0.957290000000     0.830770000000    -0.103318   
C71      C      0.540420000000     0.981860000000     0.752270000000     0.0178419  
C72      C      0.536050000000     0.980400000000     0.799370000000     0.0184759  
C73      C      0.486780000000     0.002750000000     0.688380000000     0.0194007  
C74      C      0.521350000000     0.022120000000     0.723430000000    -0.102624   
C75      C      0.526120000000     0.963100000000     0.361130000000     0.0181941  
C76      C      0.561430000000     0.075580000000     0.184280000000     0.01748    
C77      C      0.480440000000     0.042930000000     0.179450000000     0.0179271  
C78      C      0.571430000000     0.046340000000     0.227790000000    -0.102082   
C79      C      0.498310000000     0.984810000000     0.321080000000    -0.103773   
C80      C      0.489610000000     0.010200000000     0.220790000000    -0.10294    
C81      C      0.526250000000     0.024040000000     0.298930000000     0.0181015  
C82      C      0.526990000000     0.030780000000     0.252040000000     0.0172104  
C83      C      0.568300000000     0.039660000000     0.374450000000     0.0168441  
C84      C      0.543970000000     0.061410000000     0.332270000000    -0.102675   
C85      C      0.005980000000     0.452690000000     0.852910000000     0.0173744  
C86      C      0.049540000000     0.525600000000     0.663750000000     0.0169832  
C87      C      0.974760000000     0.478040000000     0.658380000000     0.0166274  
C88      C      0.065800000000     0.494040000000     0.703300000000    -0.103423   
C89      C      0.983570000000     0.457380000000     0.804710000000    -0.103958   
C90      C      0.991220000000     0.447040000000     0.699050000000    -0.103738   
C91      C      0.013820000000     0.487640000000     0.773730000000     0.0191505  
C92      C      0.024130000000     0.475240000000     0.729180000000     0.018387   
C93      C      0.047980000000     0.529940000000     0.842080000000     0.0171379  
C94      C      0.026810000000     0.535230000000     0.793770000000    -0.103215   
C95      C      0.964010000000     0.525010000000     0.165990000000     0.0176833  
C96      C      0.042190000000     0.582140000000     0.345700000000     0.0165091  
C97      C      0.970020000000     0.530600000000     0.341330000000     0.017578   
C98      C      0.024080000000     0.611410000000     0.304390000000    -0.104245   
C99      C      0.990850000000     0.520120000000     0.211410000000    -0.102825   
C100     C      0.951690000000     0.560690000000     0.301680000000    -0.103807   
C101     C      0.002740000000     0.568200000000     0.230940000000     0.0188203  
C102     C      0.992100000000     0.581170000000     0.275180000000     0.0192108  
C103     C      0.000140000000     0.604890000000     0.152520000000     0.0172881  
C104     C      0.028080000000     0.600660000000     0.197860000000    -0.104129   
C105     C      0.186820000000     0.036370000000     0.515510000000     0.017513   
C106     C      0.367500000000     0.941540000000     0.491460000000     0.0171427  
C107     C      0.363760000000     0.021820000000     0.529620000000     0.0174416  
C108     C      0.329000000000     0.956020000000     0.457160000000    -0.104137   
C109     C      0.228790000000     0.007150000000     0.529900000000    -0.103569   
C110     C      0.325690000000     0.036490000000     0.495740000000    -0.103293   
C111     C      0.252910000000     0.987500000000     0.487460000000     0.0194518  
C112     C      0.299160000000     0.993630000000     0.479410000000     0.0186273  
C113     C      0.179390000000     0.988830000000     0.441480000000     0.017563   
C114     C      0.221990000000     0.959170000000     0.455380000000    -0.104395   
C115     C      0.690500000000     0.944410000000     0.526550000000     0.0176952  
C116     C      0.865610000000     0.069040000000     0.536090000000     0.0180734  
C117     C      0.858540000000     0.034810000000     0.456370000000     0.0174237  
C118     C      0.831090000000     0.032980000000     0.555270000000    -0.102561   
C119     C      0.728730000000     0.966650000000     0.496600000000    -0.102789   
C120     C      0.825600000000     0.996230000000     0.473740000000    -0.102737   
C121     C      0.753970000000     0.005050000000     0.523430000000     0.0174921  
C122     C      0.800220000000     0.013370000000     0.516850000000     0.0171182  
C123     C      0.683960000000     0.017460000000     0.574720000000     0.018525   
C124     C      0.723070000000     0.041110000000     0.547470000000    -0.102575   
C125     C      0.016650000000     0.870550000000     0.549090000000     0.0162616  
C126     C      0.928800000000     0.678620000000     0.521950000000     0.0179142  
C127     C      0.003480000000     0.686550000000     0.566290000000     0.0183678  
C128     C      0.936660000000     0.726470000000     0.498320000000    -0.103143   
C129     C      0.980450000000     0.836040000000     0.567750000000    -0.102805   
C130     C      0.012590000000     0.735010000000     0.545300000000    -0.102428   
C131     C      0.962250000000     0.805310000000     0.528840000000     0.0181551  
C132     C      0.968000000000     0.757670000000     0.527680000000     0.0182579  
C133     C      0.978590000000     0.866580000000     0.469720000000     0.0169171  
C134     C      0.941530000000     0.832610000000     0.488740000000    -0.103844   
C135     C      0.067220000000     0.190800000000     0.509060000000     0.0179591  
C136     C      0.015130000000     0.374560000000     0.437130000000     0.0168928  
C137     C      0.093040000000     0.385380000000     0.475230000000     0.0185944  
C138     C      0.014410000000     0.322510000000     0.450820000000    -0.102597   
C139     C      0.100050000000     0.228720000000     0.489990000000    -0.104474   
C140     C      0.092450000000     0.334560000000     0.492910000000    -0.103538   
C141     C      0.073570000000     0.257530000000     0.454650000000     0.0183788  
C142     C      0.062680000000     0.303710000000     0.461840000000     0.0185679  
C143     C      0.024220000000     0.188700000000     0.431870000000     0.0156895  
C144     C      0.055150000000     0.228800000000     0.414380000000    -0.1029     
H1       H      0.729910000000     0.534980000000     0.091260000000     0.0411334  
H2       H      0.833110000000     0.559160000000     0.926520000000     0.0230085  
H3       H      0.657270000000     0.639260000000     0.013230000000     0.0224533  
H4       H      0.709060000000     0.604820000000     0.958460000000     0.041025   
H5       H      0.781710000000     0.614460000000     0.961560000000     0.0410684  
H6       H      0.777780000000     0.486670000000     0.045130000000     0.0412039  
H7       H      0.649000000000     0.549990000000     0.110940000000     0.0320057  
H8       H      0.868520000000     0.603330000000     0.953130000000     0.0318846  
H9       H      0.682390000000     0.548430000000     0.961730000000     0.0492633  
H10      H      0.816500000000     0.531580000000     0.067090000000     0.0491717  
H11      H      0.622580000000     0.605160000000     0.974260000000     0.0315816  
H12      H      0.821520000000     0.479430000000     0.972830000000     0.0239216  
H13      H      0.691470000000     0.503180000000     0.052690000000     0.0492149  
H14      H      0.814280000000     0.617560000000     0.013940000000     0.0489299  
H15      H      0.857310000000     0.470010000000     0.022960000000     0.0320051  
H16      H      0.678040000000     0.602890000000     0.093650000000     0.0233338  
H17      H      0.220560000000     0.579020000000     0.082200000000     0.0417515  
H18      H      0.342710000000     0.431910000000     0.048780000000     0.0220759  
H19      H      0.178920000000     0.487780000000     0.971220000000     0.0224137  
H20      H      0.222420000000     0.436560000000     0.024070000000     0.0415159  
H21      H      0.285910000000     0.463960000000     0.995130000000     0.0415698  
H22      H      0.279200000000     0.540150000000     0.126610000000     0.04167    
H23      H      0.139800000000     0.588560000000     0.053540000000     0.029431   
H24      H      0.372760000000     0.461410000000     0.002850000000     0.0294061  
H25      H      0.183790000000     0.448770000000     0.070510000000     0.0499749  
H26      H      0.310440000000     0.569940000000     0.080740000000     0.0488107  
H27      H      0.139640000000     0.448020000000     0.999440000000     0.031079   
H28      H      0.335990000000     0.476260000000     0.129590000000     0.0250227  
H29      H      0.181340000000     0.536170000000     0.106730000000     0.048585   
H30      H      0.312590000000     0.520380000000     0.995650000000     0.0511428  
H31      H      0.365150000000     0.532030000000     0.134470000000     0.0298353  
H32      H      0.180670000000     0.578100000000     0.007290000000     0.0257553  
H33      H      0.512780000000     0.754700000000     0.140250000000     0.0411932  
H34      H      0.488100000000     0.859390000000     0.984250000000     0.0226803  
H35      H      0.403420000000     0.705290000000     0.058840000000     0.0218881  
H36      H      0.442200000000     0.759510000000     0.005690000000     0.0414579  
H37      H      0.423270000000     0.826520000000     0.031180000000     0.0411447  
H38      H      0.555440000000     0.812760000000     0.106860000000     0.0415839  
H39      H      0.496490000000     0.669420000000     0.144870000000     0.0318954  
H40      H      0.449410000000     0.904750000000     0.003570000000     0.0317979  
H41      H      0.494610000000     0.726690000000     0.007390000000     0.0510257  
H42      H      0.514510000000     0.857110000000     0.124870000000     0.0478178  
H43      H      0.428500000000     0.673320000000     0.011660000000     0.0310122  
H44      H      0.569880000000     0.850980000000     0.032780000000     0.0252259  
H45      H      0.541420000000     0.722300000000     0.094360000000     0.0491475  
H46      H      0.435990000000     0.865440000000     0.077270000000     0.0496489  
H47      H      0.577450000000     0.892010000000     0.079710000000     0.0313245  
H48      H      0.444910000000     0.704130000000     0.138480000000     0.0233016  
H49      H      0.501750000000     0.269700000000     0.975130000000     0.0419474  
H50      H      0.533480000000     0.358820000000     0.090700000000     0.0265385  
H51      H      0.627650000000     0.196900000000     0.987290000000     0.0251604  
H52      H      0.633660000000     0.254430000000     0.049090000000     0.0412747  
H53      H      0.610040000000     0.322700000000     0.080430000000     0.0411892  
H54      H      0.540860000000     0.326630000000     0.944650000000     0.0413238  
H55      H      0.494950000000     0.182310000000     0.973310000000     0.03104    
H56      H      0.578700000000     0.402210000000     0.096840000000     0.0298927  
H57      H      0.582780000000     0.232100000000     0.078740000000     0.0487911  
H58      H      0.584770000000     0.367820000000     0.958850000000     0.0495742  
H59      H      0.626260000000     0.168080000000     0.042920000000     0.0301841  
H60      H      0.487840000000     0.361970000000     0.003520000000     0.0226033  
H61      H      0.499380000000     0.243320000000     0.030950000000     0.0507829  
H62      H      0.626920000000     0.365260000000     0.037550000000     0.0477341  
H63      H      0.509910000000     0.406100000000     0.964830000000     0.0317938  
H64      H      0.544710000000     0.203970000000     0.942600000000     0.0222957  
H65      H      0.571430000000     0.911450000000     0.746510000000     0.0414412  
H66      H      0.535060000000     0.069340000000     0.836140000000     0.0222157  
H67      H      0.456460000000     0.987340000000     0.707000000000     0.0220622  
H68      H      0.505500000000     0.051020000000     0.743850000000     0.0416465  
H69      H      0.469920000000     0.020360000000     0.801830000000     0.0416599  
H70      H      0.602330000000     0.943830000000     0.811120000000     0.041533   
H71      H      0.548130000000     0.900950000000     0.662620000000     0.0310465  
H72      H      0.488250000000     0.059380000000     0.875710000000     0.0314233  
H73      H      0.550800000000     0.038470000000     0.704230000000     0.0522843  
H74      H      0.555340000000     0.927120000000     0.849010000000     0.0476442  
H75      H      0.473080000000     0.032050000000     0.666720000000     0.0304054  
H76      H      0.613700000000     0.018640000000     0.849650000000     0.0252469  
H77      H      0.595360000000     0.955490000000     0.708370000000     0.0479345  
H78      H      0.478180000000     0.978130000000     0.846120000000     0.0515306  
H79      H      0.610590000000     0.973700000000     0.893410000000     0.0310081  
H80      H      0.500020000000     0.905170000000     0.702110000000     0.025022   
H81      H      0.490600000000     0.956080000000     0.296040000000     0.0413946  
H82      H      0.549930000000     0.111360000000     0.194940000000     0.0223461  
H83      H      0.603170000000     0.026580000000     0.363750000000     0.0222398  
H84      H      0.567620000000     0.087380000000     0.316020000000     0.0413008  
H85      H      0.595360000000     0.066530000000     0.250380000000     0.0412184  
H86      H      0.456160000000     0.005970000000     0.239740000000     0.0414183  
H87      H      0.503360000000     0.936700000000     0.378420000000     0.0305225  
H88      H      0.594380000000     0.079950000000     0.164490000000     0.0306932  
H89      H      0.513370000000     0.081730000000     0.344780000000     0.0497702  
H90      H      0.501030000000     0.975110000000     0.208040000000     0.0483343  
H91      H      0.574000000000     0.067870000000     0.400630000000     0.0311977  
H92      H      0.464010000000     0.076150000000     0.191690000000     0.0249543  
H93      H      0.464830000000     0.999140000000     0.334300000000     0.0486071  
H94      H      0.590590000000     0.014100000000     0.217140000000     0.050142   
H95      H      0.455390000000     0.025070000000     0.155850000000     0.0305696  
H96      H      0.557120000000     0.944270000000     0.347310000000     0.0249412  
H97      H      0.979460000000     0.421140000000     0.790810000000     0.0414119  
H98      H      0.034270000000     0.558440000000     0.678230000000     0.0228679  
H99      H      0.083360000000     0.514380000000     0.838970000000     0.0226044  
H100     H      0.050630000000     0.556140000000     0.771700000000     0.0420587  
H101     H      0.091250000000     0.512530000000     0.725790000000     0.0414195  
H102     H      0.959880000000     0.434550000000     0.717850000000     0.0414261  
H103     H      0.980470000000     0.434540000000     0.875800000000     0.0313454  
H104     H      0.080870000000     0.535670000000     0.643400000000     0.0324293  
H105     H      0.994390000000     0.556370000000     0.796790000000     0.050591   
H106     H      0.009760000000     0.415650000000     0.685280000000     0.0476862  
H107     H      0.052100000000     0.565750000000     0.857110000000     0.0319667  
H108     H      0.950250000000     0.505290000000     0.671480000000     0.0263798  
H109     H      0.948560000000     0.473700000000     0.807890000000     0.0486985  
H110     H      0.085040000000     0.463710000000     0.688190000000     0.0493772  
H111     H      0.955350000000     0.454960000000     0.633900000000     0.0311325  
H112     H      0.037570000000     0.430180000000     0.850620000000     0.0250441  
H113     H      0.971360000000     0.497170000000     0.235700000000     0.0419074  
H114     H      0.068000000000     0.555920000000     0.333080000000     0.0262485  
H115     H      0.967690000000     0.625230000000     0.158890000000     0.0253837  
H116     H      0.032180000000     0.636740000000     0.212110000000     0.0411967  
H117     H      0.054670000000     0.624690000000     0.284870000000     0.0413647  
H118     H      0.927100000000     0.540500000000     0.279640000000     0.0416082  
H119     H      0.959930000000     0.489370000000     0.150570000000     0.0311353  
H120     H      0.060410000000     0.606620000000     0.369760000000     0.0305075  
H121     H      0.063210000000     0.586100000000     0.190430000000     0.0482049  
H122     H      0.931080000000     0.590180000000     0.316600000000     0.0497021  
H123     H      0.021700000000     0.625150000000     0.127420000000     0.0306358  
H124     H      0.987190000000     0.498620000000     0.327090000000     0.0224993  
H125     H      0.024050000000     0.501440000000     0.204120000000     0.0506322  
H126     H      0.004370000000     0.642320000000     0.317580000000     0.0475304  
H127     H      0.939450000000     0.518730000000     0.361890000000     0.0322933  
H128     H      0.928490000000     0.538620000000     0.173420000000     0.0220626  
H129     H      0.251740000000     0.028060000000     0.552960000000     0.0419516  
H130     H      0.352050000000     0.921440000000     0.520820000000     0.0259448  
H131     H      0.190250000000     0.017230000000     0.417180000000     0.0259601  
H132     H      0.240060000000     0.948850000000     0.422840000000     0.0414959  
H133     H      0.309090000000     0.923870000000     0.447980000000     0.0412952  
H134     H      0.303350000000     0.064200000000     0.511190000000     0.0417114  
H135     H      0.167800000000     0.046450000000     0.547640000000     0.0316767  
H136     H      0.391720000000     0.917670000000     0.472640000000     0.0303475  
H137     H      0.210430000000     0.926660000000     0.473530000000     0.0481856  
H138     H      0.342400000000     0.053010000000     0.464940000000     0.0502591  
H139     H      0.154790000000     0.965310000000     0.422710000000     0.029983   
H140     H      0.347640000000     0.009700000000     0.562650000000     0.0224194  
H141     H      0.216430000000     0.977020000000     0.551240000000     0.0504168  
H142     H      0.344930000000     0.970240000000     0.424880000000     0.0478566  
H143     H      0.384960000000     0.053480000000     0.537790000000     0.0315052  
H144     H      0.198890000000     0.069440000000     0.498690000000     0.0223899  
H145     H      0.752850000000     0.937880000000     0.486340000000     0.0413043  
H146     H      0.846480000000     0.101600000000     0.526320000000     0.0223796  
H147     H      0.698820000000     0.000220000000     0.606090000000     0.0218481  
H148     H      0.741790000000     0.065230000000     0.571100000000     0.0413394  
H149     H      0.811960000000     0.048820000000     0.584700000000     0.0412408  
H150     H      0.801360000000     0.988040000000     0.444790000000     0.0411989  
H151     H      0.670590000000     0.919330000000     0.504540000000     0.0312225  
H152     H      0.890620000000     0.078970000000     0.563870000000     0.0310834  
H153     H      0.707230000000     0.063620000000     0.520120000000     0.0507366  
H154     H      0.845710000000     0.963940000000     0.482280000000     0.0485515  
H155     H      0.659410000000     0.044930000000     0.587220000000     0.0306665  
H156     H      0.837950000000     0.065430000000     0.443790000000     0.0237362  
H157     H      0.713110000000     0.982000000000     0.464670000000     0.0483541  
H158     H      0.851150000000     0.003120000000     0.570180000000     0.0507756  
H159     H      0.878260000000     0.020940000000     0.426110000000     0.0319628  
H160     H      0.706480000000     0.923930000000     0.555380000000     0.0240526  
H161     H      0.994470000000     0.816020000000     0.597680000000     0.041219   
H162     H      0.906730000000     0.683210000000     0.553380000000     0.024773   
H163     H      0.006680000000     0.846290000000     0.452230000000     0.0258012  
H164     H      0.929780000000     0.809880000000     0.459670000000     0.0411983  
H165     H      0.901900000000     0.742870000000     0.493360000000     0.0413284  
H166     H      0.031600000000     0.756410000000     0.571200000000     0.0418262  
H167     H      0.025750000000     0.895370000000     0.577520000000     0.0319164  
H168     H      0.909680000000     0.655490000000     0.497290000000     0.0298441  
H169     H      0.910970000000     0.852990000000     0.501240000000     0.0475147  
H170     H      0.036420000000     0.730770000000     0.515160000000     0.0515172  
H171     H      0.961460000000     0.889040000000     0.443080000000     0.0305998  
H172     H      0.985670000000     0.690890000000     0.600330000000     0.0221137  
H173     H      0.950740000000     0.856660000000     0.581830000000     0.0493937  
H174     H      0.952950000000     0.721070000000     0.463690000000     0.048652   
H175     H      0.037440000000     0.669210000000     0.573400000000     0.0300799  
H176     H      0.048840000000     0.851000000000     0.539750000000     0.0230257  
H177     H      0.113250000000     0.249500000000     0.519820000000     0.0413156  
H178     H      0.028370000000     0.377850000000     0.400970000000     0.0222357  
H179     H      0.990380000000     0.203450000000     0.443680000000     0.0233055  
H180     H      0.036720000000     0.250040000000     0.387850000000     0.0411732  
H181     H      0.996290000000     0.302780000000     0.423040000000     0.0420301  
H182     H      0.129170000000     0.322240000000     0.493360000000     0.041339   
H183     H      0.088080000000     0.167890000000     0.532510000000     0.0297133  
H184     H      0.978660000000     0.387630000000     0.437140000000     0.0312378  
H185     H      0.085450000000     0.213050000000     0.396060000000     0.0489579  
H186     H      0.078510000000     0.333520000000     0.528940000000     0.0488695  
H187     H      0.017000000000     0.164900000000     0.402060000000     0.031719   
H188     H      0.112470000000     0.387460000000     0.441870000000     0.0251362  
H189     H      0.130430000000     0.211740000000     0.472930000000     0.0483857  
H190     H      0.992840000000     0.318620000000     0.482650000000     0.0506608  
H191     H      0.111930000000     0.407040000000     0.501340000000     0.0302376  
H192     H      0.039200000000     0.207450000000     0.530070000000     0.0266738  
N1       N      0.867710000000     0.535820000000     0.986940000000    -0.188655   
N2       N      0.631020000000     0.576850000000     0.043090000000    -0.188841   
N3       N      0.372860000000     0.496490000000     0.069090000000    -0.189506   
N4       N      0.136430000000     0.520220000000     0.021970000000    -0.189036   
N5       N      0.516130000000     0.901830000000     0.037910000000    -0.189285   
N6       N      0.463610000000     0.666920000000     0.077520000000    -0.189696   
N7       N      0.538180000000     0.406750000000     0.034310000000    -0.188845   
N8       N      0.561320000000     0.170410000000     0.006020000000    -0.189176   
N9       N      0.551080000000     0.019330000000     0.888480000000    -0.188897   
N10      N      0.509600000000     0.965890000000     0.660530000000    -0.189141   
N11      N      0.524560000000     0.053830000000     0.155960000000    -0.189019   
N12      N      0.541340000000     0.000040000000     0.393660000000    -0.188873   
N13      N      0.014220000000     0.501530000000     0.634850000000    -0.188694   
N14      N      0.019070000000     0.499190000000     0.871610000000    -0.188964   
N15      N      0.003970000000     0.557170000000     0.369720000000    -0.188946   
N16      N      0.987930000000     0.557900000000     0.134340000000    -0.189116   
N17      N      0.392030000000     0.983250000000     0.509960000000    -0.188881   
N18      N      0.157090000000     0.010160000000     0.482590000000    -0.189165   
N19      N      0.889020000000     0.049990000000     0.494670000000    -0.189614   
N20      N      0.660770000000     0.981610000000     0.545990000000    -0.18979    
N21      N      0.973740000000     0.658180000000     0.535480000000    -0.18933    
N22      N      0.999040000000     0.895230000000     0.507460000000    -0.188435   
N23      N      0.045250000000     0.402370000000     0.468200000000    -0.18882    
N24      N      0.046090000000     0.163200000000     0.470960000000    -0.188598   
O1       O      0.030350000000     0.089650000000     0.441700000000    -0.555799   
O2       O      0.008720000000     0.958860000000     0.459490000000    -0.558711   
O3       O      0.955310000000     0.034760000000     0.453480000000    -0.562436   
O4       O      0.085290000000     0.012290000000     0.447630000000    -0.557586   
O5       O      0.090760000000     0.024160000000     0.524110000000    -0.562037   
O6       O      0.960580000000     0.045580000000     0.530080000000    -0.558507   
O7       O      0.015780000000     0.968730000000     0.536090000000    -0.558538   
O8       O      0.036850000000     0.099340000000     0.518410000000    -0.561645   
O9       O      0.989350000000     0.457070000000     0.485460000000    -0.558477   
O10      O      0.954320000000     0.582450000000     0.515640000000    -0.556893   
O11      O      0.969370000000     0.533700000000     0.437270000000    -0.563841   
O12      O      0.974520000000     0.504160000000     0.565550000000    -0.558184   
O13      O      0.049120000000     0.525850000000     0.567520000000    -0.561226   
O14      O      0.043660000000     0.556490000000     0.439180000000    -0.556348   
O15      O      0.029240000000     0.602910000000     0.519800000000    -0.560758   
O16      O      0.064160000000     0.478100000000     0.488440000000    -0.558362   
O17      O      0.521850000000     0.935180000000     0.587640000000    -0.554475   
O18      O      0.532050000000     0.952210000000     0.456980000000    -0.558655   
O19      O      0.592830000000     0.943820000000     0.527550000000    -0.559198   
O20      O      0.461290000000     0.943560000000     0.515650000000    -0.557904   
O21      O      0.460950000000     0.021880000000     0.521990000000    -0.560443   
O22      O      0.591080000000     0.020600000000     0.543850000000    -0.560897   
O23      O      0.537400000000     0.029840000000     0.467680000000    -0.557704   
O24      O      0.514780000000     0.012920000000     0.596450000000    -0.562845   
O25      O      0.511340000000     0.107760000000     0.011400000000    -0.559662   
O26      O      0.489950000000     0.976390000000     0.022460000000    -0.56075    
O27      O      0.493440000000     0.048160000000     0.082880000000    -0.560181   
O28      O      0.507440000000     0.035970000000     0.952620000000    -0.564772   
O29      O      0.582620000000     0.018780000000     0.962090000000    -0.552497   
O30      O      0.570360000000     0.041990000000     0.091900000000    -0.555808   
O31      O      0.565340000000     0.965320000000     0.037440000000    -0.558739   
O32      O      0.587780000000     0.095380000000     0.018050000000    -0.559149   
O33      O      0.004070000000     0.476170000000     0.946450000000    -0.560795   
O34      O      0.992960000000     0.504460000000     0.074860000000    -0.559736   
O35      O      0.933710000000     0.494630000000     0.004550000000    -0.564213   
O36      O      0.064660000000     0.485650000000     0.016700000000    -0.559807   
O37      O      0.070900000000     0.563330000000     0.006600000000    -0.556706   
O38      O      0.940430000000     0.570080000000     0.984230000000    -0.552244   
O39      O      0.996930000000     0.581230000000     0.058750000000    -0.559026   
O40      O      0.016150000000     0.552280000000     0.931550000000    -0.558174   
O41      O      0.515740000000     0.479010000000     0.007140000000    -0.558842   
O42      O      0.475120000000     0.604290000000     0.028460000000    -0.55751    
O43      O      0.558400000000     0.563890000000     0.011620000000    -0.553362   
O44      O      0.434140000000     0.519180000000     0.023740000000    -0.557237   
O45      O      0.443560000000     0.515290000000     0.100680000000    -0.559459   
O46      O      0.570250000000     0.549780000000     0.086920000000    -0.56341    
O47      O      0.491070000000     0.596190000000     0.103890000000    -0.562538   
O48      O      0.524130000000     0.468600000000     0.083570000000    -0.560031   
V1       V      0.019890000000     0.023560000000     0.447480000000     1.38683    
V2       V      0.026040000000     0.034720000000     0.530250000000     1.39357    
V3       V      0.968870000000     0.518580000000     0.501120000000     1.39108    
V4       V      0.049550000000     0.541630000000     0.503640000000     1.38969    
V5       V      0.527070000000     0.940480000000     0.521660000000     1.38293    
V6       V      0.526070000000     0.024480000000     0.532730000000     1.39497    
V7       V      0.497480000000     0.042580000000     0.017120000000     1.39905    
V8       V      0.579640000000     0.029830000000     0.027630000000     1.37906    
V9       V      0.998690000000     0.487160000000     0.011290000000     1.3985     
V10      V      0.006230000000     0.569840000000     0.994520000000     1.37918    
V11      V      0.495520000000     0.542100000000     0.014630000000     1.37974    
V12      V      0.507610000000     0.532010000000     0.096820000000     1.39864    


