data_structure

_audit_creation_method RASPA-1.0
_audit_creation_date 2023-5-19
_audit_author_name 'Poobodin Mano'

_cell_length_a    29.5776
_cell_length_b    19.3162
_cell_length_c    22.2495
_cell_angle_alpha 90
_cell_angle_beta  89.9998
_cell_angle_gamma 90
_cell_volume      12711.7

_symmetry_cell_setting          triclinic
_symmetry_space_group_name_Hall 'P 1'
_symmetry_space_group_name_H-M  'P 1'
_symmetry_Int_Tables_number     1

_symmetry_equiv_pos_as_xyz 'x,y,z'

loop_
_atom_site_label
_atom_site_type_symbol
_atom_site_fract_x
_atom_site_fract_y
_atom_site_fract_z
_atom_site_charge
C1       C      0.950280000000     0.352970000000     0.634930000000     0.486779   
C2       C      0.917670000000     0.121150000000     0.731370000000     0.487282   
C3       C      0.850350000000     0.259050000000     0.674640000000     0.487487   
C4       C      0.018460000000     0.215620000000     0.690680000000     0.487078   
C5       C      0.064250000000     0.763560000000     0.610320000000     0.489693   
C6       C      0.054040000000     0.821600000000     0.831490000000     0.491492   
C7       C      0.036360000000     0.914620000000     0.693900000000     0.491756   
C8       C      0.080580000000     0.669950000000     0.748380000000     0.489774   
C9       C      0.422210000000     0.255100000000     0.781750000000     0.486976   
C10      C      0.437340000000     0.373650000000     0.579980000000     0.485802   
C11      C      0.514500000000     0.312160000000     0.691080000000     0.487026   
C12      C      0.344200000000     0.316880000000     0.671450000000     0.486922   
C13      C      0.488060000000     0.345910000000     0.048030000000     0.488862   
C14      C      0.451660000000     0.248950000000     0.253520000000     0.488688   
C15      C      0.441730000000     0.415780000000     0.184830000000     0.490113   
C16      C      0.497500000000     0.180300000000     0.118830000000     0.488864   
C17      C      0.133110000000     0.761930000000     0.122130000000     0.486182   
C18      C      0.116790000000     0.878830000000     0.324340000000     0.486605   
C19      C      0.040850000000     0.795220000000     0.222550000000     0.485063   
C20      C      0.208710000000     0.845970000000     0.224480000000     0.48597    
C21      C      0.600750000000     0.730330000000     0.159600000000     0.48617    
C22      C      0.636820000000     0.949320000000     0.274680000000     0.486854   
C23      C      0.702970000000     0.814520000000     0.206650000000     0.485837   
C24      C      0.535990000000     0.866330000000     0.227070000000     0.485928   
C25      C      0.846690000000     0.825900000000     0.269640000000    -0.0428204  
C26      C      0.774410000000     0.762430000000     0.244270000000    -0.0133051  
C27      C      0.915100000000     0.809320000000     0.210770000000     0.0105384  
C28      C      0.824180000000     0.775870000000     0.234990000000     0.0112765  
C29      C      0.963030000000     0.829600000000     0.195860000000    -0.0125157  
C30      C      0.847850000000     0.741380000000     0.189170000000    -0.0438346  
C31      C      0.893010000000     0.757850000000     0.177260000000    -0.0432961  
C32      C      0.891900000000     0.842170000000     0.257880000000    -0.0427814  
C33      C      0.393320000000     0.884660000000     0.156010000000    -0.0433851  
C34      C      0.468860000000     0.929530000000     0.191340000000    -0.0135453  
C35      C      0.323130000000     0.923590000000     0.201520000000     0.0101749  
C36      C      0.418230000000     0.924850000000     0.196840000000     0.0109394  
C37      C      0.272210000000     0.924680000000     0.202130000000    -0.0123035  
C38      C      0.395310000000     0.963030000000     0.241040000000    -0.0433351  
C39      C      0.348070000000     0.962200000000     0.243520000000    -0.0436493  
C40      C      0.346120000000     0.884040000000     0.158340000000    -0.0426558  
C41      C      0.600760000000     0.173010000000     0.335220000000    -0.0462977  
C42      C      0.642490000000     0.077790000000     0.280180000000    -0.0154596  
C43      C      0.518590000000     0.178190000000     0.336270000000     0.0237008  
C44      C      0.599380000000     0.113120000000     0.299490000000     0.0153746  
C45      C      0.475470000000     0.213510000000     0.356250000000    -0.0117744  
C46      C      0.557220000000     0.085780000000     0.282550000000    -0.0396166  
C47      C      0.517170000000     0.117500000000     0.301430000000    -0.0385908  
C48      C      0.560740000000     0.205220000000     0.353450000000    -0.0430974  
C49      C      0.521560000000     0.518510000000     0.994170000000    -0.0411487  
C50      C      0.542830000000     0.393570000000     0.974360000000    -0.011556   
C51      C      0.574160000000     0.598140000000     0.041840000000     0.0106687  
C52      C      0.553020000000     0.464360000000     0.999700000000     0.0220051  
C53      C      0.586040000000     0.669750000000     0.063750000000    -0.0122253  
C54      C      0.595100000000     0.477750000000     0.026590000000    -0.044244   
C55      C      0.605580000000     0.544090000000     0.047400000000    -0.0420957  
C56      C      0.531910000000     0.584730000000     0.015510000000    -0.0427243  
C57      C      0.418920000000     0.095820000000     0.007280000000    -0.0391202  
C58      C      0.482830000000     0.063270000000     0.077390000000    -0.0117482  
C59      C      0.433110000000     0.125360000000     0.902850000000     0.0119563  
C60      C      0.465350000000     0.084680000000     0.016530000000     0.0221795  
C61      C      0.416160000000     0.147910000000     0.842170000000    -0.0128715  
C62      C      0.495530000000     0.094510000000     0.968610000000    -0.0430243  
C63      C      0.479560000000     0.115060000000     0.912260000000    -0.041303   
C64      C      0.402960000000     0.116360000000     0.950930000000    -0.0447512  
C65      C      0.491150000000     0.417320000000     0.382940000000    -0.0437199  
C66      C      0.448490000000     0.365250000000     0.470510000000    -0.0129818  
C67      C      0.452780000000     0.487840000000     0.308160000000     0.0177518  
C68      C      0.450880000000     0.411470000000     0.416020000000     0.0112313  
C69      C      0.451830000000     0.521130000000     0.246830000000    -0.0121758  
C70      C      0.411920000000     0.445620000000     0.395620000000    -0.0417672  
C71      C      0.412870000000     0.483570000000     0.342150000000    -0.042705   
C72      C      0.492040000000     0.454940000000     0.329280000000    -0.0364666  
C73      C      0.102250000000     0.625500000000     0.899680000000    -0.0418085  
C74      C      0.134350000000     0.591330000000     0.798810000000    -0.0126513  
C75      C      0.134480000000     0.719570000000     0.958140000000     0.0121267  
C76      C      0.136520000000     0.632740000000     0.856390000000     0.0189316  
C77      C      0.131960000000     0.767770000000     0.011320000000    -0.0125231  
C78      C      0.170400000000     0.682670000000     0.865190000000    -0.0379909  
C79      C      0.169470000000     0.725610000000     0.915790000000    -0.0426083  
C80      C      0.101060000000     0.668880000000     0.949890000000    -0.0413392  
C81      C      0.056900000000     0.936500000000     0.492830000000    -0.0416861  
C82      C      0.117010000000     0.872480000000     0.435100000000    -0.013173   
C83      C      0.073160000000     0.992480000000     0.588220000000     0.0194352  
C84      C      0.102300000000     0.916300000000     0.487550000000     0.0126591  
C85      C      0.055940000000     0.025560000000     0.645230000000    -0.0138503  
C86      C      0.133240000000     0.935620000000     0.532390000000    -0.0428423  
C87      C      0.118760000000     0.973320000000     0.582440000000    -0.0369152  
C88      C      0.042500000000     0.974630000000     0.542570000000    -0.0421764  
C89      C      0.192920000000     0.307210000000     0.658020000000    -0.0441043  
C90      C      0.271990000000     0.263420000000     0.638380000000    -0.0141657  
C91      C      0.139900000000     0.242370000000     0.719630000000     0.010546   
C92      C      0.226260000000     0.256680000000     0.667750000000     0.01267    
C93      C      0.092320000000     0.231750000000     0.741950000000    -0.0127275  
C94      C      0.216200000000     0.199230000000     0.704080000000    -0.0432902  
C95      C      0.173220000000     0.191860000000     0.729450000000    -0.0440103  
C96      C      0.150080000000     0.300090000000     0.683760000000    -0.04157    
C97      C      0.705630000000     0.245960000000     0.742250000000    -0.0430556  
C98      C      0.778960000000     0.305950000000     0.716110000000    -0.0128692  
C99      C      0.637110000000     0.267080000000     0.684920000000     0.0103434  
C100     C      0.729200000000     0.293750000000     0.706490000000     0.0112698  
C101     C      0.587650000000     0.254060000000     0.673790000000    -0.0118619  
C102     C      0.706280000000     0.328610000000     0.660260000000    -0.043964   
C103     C      0.660550000000     0.315370000000     0.649570000000    -0.0428184  
C104     C      0.659810000000     0.233070000000     0.731800000000    -0.0431248  
C105     C      0.990090000000     0.963120000000     0.904350000000    -0.0417934  
C106     C      0.009050000000     0.837930000000     0.924280000000    -0.0116254  
C107     C      0.922750000000     0.996200000000     0.848870000000     0.0159632  
C108     C      0.977800000000     0.893060000000     0.900230000000     0.0198915  
C109     C      0.894080000000     0.051180000000     0.819930000000    -0.0140279  
C110     C      0.937680000000     0.874980000000     0.870330000000    -0.0370555  
C111     C      0.910460000000     0.926160000000     0.844640000000    -0.0448374  
C112     C      0.962920000000     0.014270000000     0.878540000000    -0.041703   
C113     C      0.966380000000     0.649880000000     0.561740000000    -0.0400782  
C114     C      0.030000000000     0.719560000000     0.515660000000    -0.0121499  
C115     C      0.980560000000     0.537920000000     0.607670000000     0.012138   
C116     C      0.011790000000     0.654050000000     0.543630000000     0.0236778  
C117     C      0.964890000000     0.477850000000     0.645360000000    -0.0123522  
C118     C      0.040960000000     0.598330000000     0.555580000000    -0.0412372  
C119     C      0.025480000000     0.540760000000     0.587530000000    -0.0408921  
C120     C      0.950850000000     0.592120000000     0.593380000000    -0.0443673  
H1       H      0.984500000000     0.735190000000     0.241490000000     0.102226   
H2       H      0.767030000000     0.706500000000     0.237670000000     0.0352426  
H3       H      0.763950000000     0.776420000000     0.290750000000     0.0405123  
H4       H      0.908480000000     0.881500000000     0.284690000000     0.0365475  
H5       H      0.829030000000     0.853260000000     0.305060000000     0.0370513  
H6       H      0.967770000000     0.830130000000     0.146260000000     0.0358898  
H7       H      0.831030000000     0.702800000000     0.161810000000     0.0363436  
H8       H      0.910500000000     0.731460000000     0.141130000000     0.0364979  
H9       H      0.970020000000     0.883400000000     0.211200000000     0.0397501  
H10      H      0.764030000000     0.821470000000     0.162140000000     0.102645   
H11      H      0.275380000000     0.823360000000     0.245320000000     0.102959   
H12      H      0.479500000000     0.917960000000     0.144430000000     0.0406769  
H13      H      0.480140000000     0.983130000000     0.201800000000     0.0347948  
H14      H      0.327450000000     0.853470000000     0.125930000000     0.0383068  
H15      H      0.410380000000     0.854670000000     0.121680000000     0.0372215  
H16      H      0.259330000000     0.968610000000     0.229570000000     0.0364692  
H17      H      0.413980000000     0.994250000000     0.272990000000     0.0362751  
H18      H      0.330990000000     0.992570000000     0.277560000000     0.0359204  
H19      H      0.259420000000     0.933590000000     0.155740000000     0.038895   
H20      H      0.473990000000     0.863530000000     0.270670000000     0.10226    
H21      H      0.410440000000     0.197370000000     0.314220000000     0.0981738  
H22      H      0.643500000000     0.075830000000     0.230270000000     0.0444437  
H23      H      0.672370000000     0.107510000000     0.296080000000     0.030094   
H24      H      0.562710000000     0.251450000000     0.380890000000     0.034329   
H25      H      0.632810000000     0.194930000000     0.349100000000     0.0339434  
H26      H      0.460540000000     0.183950000000     0.394220000000     0.0268304  
H27      H      0.555310000000     0.039610000000     0.255040000000     0.0442655  
H28      H      0.485080000000     0.095090000000     0.288260000000     0.0391445  
H29      H      0.483060000000     0.266570000000     0.372570000000     0.0368085  
H30      H      0.648260000000     0.004660000000     0.353040000000     0.100929   
H31      H      0.585110000000     0.626130000000     0.154200000000     0.102478   
H32      H      0.544120000000     0.397220000000     0.924530000000     0.0301878  
H33      H      0.568660000000     0.355230000000     0.989050000000     0.0386961  
H34      H      0.507110000000     0.625640000000     0.010810000000     0.0360413  
H35      H      0.489100000000     0.509650000000     0.972970000000     0.03951    
H36      H      0.618510000000     0.686390000000     0.043080000000     0.0375898  
H37      H      0.620070000000     0.437050000000     0.030920000000     0.0359057  
H38      H      0.638340000000     0.553440000000     0.067620000000     0.0369114  
H39      H      0.560320000000     0.708350000000     0.049260000000     0.0379671  
H40      H      0.472470000000     0.368860000000     0.959340000000     0.100691   
H41      H      0.416440000000     0.254200000000     0.874560000000     0.103648   
H42      H      0.454380000000     0.053910000000     0.109070000000     0.0373402  
H43      H      0.502470000000     0.014550000000     0.072390000000     0.0264608  
H44      H      0.367080000000     0.125050000000     0.944780000000     0.0345504  
H45      H      0.395050000000     0.088970000000     0.043710000000     0.0368607  
H46      H      0.435970000000     0.121630000000     0.806280000000     0.0414084  
H47      H      0.531470000000     0.086540000000     0.974970000000     0.0368551  
H48      H      0.503390000000     0.122730000000     0.875890000000     0.0377998  
H49      H      0.380430000000     0.131470000000     0.835930000000     0.0332629  
H50      H      0.546730000000     0.104740000000     0.108050000000     0.0974792  
H51      H      0.392100000000     0.490210000000     0.197870000000     0.0999248  
H52      H      0.419400000000     0.329180000000     0.465490000000     0.0397696  
H53      H      0.479400000000     0.332740000000     0.474690000000     0.0360571  
H54      H      0.523070000000     0.456800000000     0.303480000000     0.0375063  
H55      H      0.521560000000     0.391100000000     0.397680000000     0.0346607  
H56      H      0.435400000000     0.572750000000     0.250310000000     0.0300951  
H57      H      0.380490000000     0.441410000000     0.420360000000     0.0385266  
H58      H      0.382110000000     0.507890000000     0.326280000000     0.0374896  
H59      H      0.486740000000     0.528800000000     0.229380000000     0.0418154  
H60      H      0.443480000000     0.459450000000     0.524490000000     0.101997   
H61      H      0.145290000000     0.677320000000     0.067380000000     0.102386   
H62      H      0.163080000000     0.604330000000     0.768580000000     0.0391509  
H63      H      0.135890000000     0.535310000000     0.810060000000     0.0283658  
H64      H      0.073760000000     0.663530000000     0.982020000000     0.0383717  
H65      H      0.075660000000     0.587570000000     0.893630000000     0.0375131  
H66      H      0.158010000000     0.809170000000     0.008300000000     0.036743   
H67      H      0.197000000000     0.689530000000     0.832270000000     0.0352086  
H68      H      0.195600000000     0.764370000000     0.921250000000     0.0350456  
H69      H      0.098690000000     0.794620000000     0.011220000000     0.0381325  
H70      H      0.066200000000     0.567920000000     0.770270000000     0.0982212  
H71      H      0.989720000000     0.991140000000     0.673080000000     0.104883   
H72      H      0.152570000000     0.854730000000     0.440220000000     0.0364193  
H73      H      0.095410000000     0.825370000000     0.433150000000     0.0400234  
H74      H      0.007120000000     0.988410000000     0.546460000000     0.0364624  
H75      H      0.032520000000     0.921810000000     0.458790000000     0.0384357  
H76      H      0.084280000000     0.037850000000     0.676340000000     0.0405271  
H77      H      0.168410000000     0.920420000000     0.529260000000     0.0350822  
H78      H      0.142910000000     0.985980000000     0.617350000000     0.0356319  
H79      H      0.038370000000     0.074420000000     0.633510000000     0.0386863  
H80      H      0.106500000000     0.963920000000     0.379230000000     0.102029   
H81      H      0.079340000000     0.180540000000     0.656890000000     0.100724   
H82      H      0.290420000000     0.213210000000     0.639390000000     0.0424191  
H83      H      0.267190000000     0.278070000000     0.590490000000     0.0338772  
H84      H      0.124530000000     0.338940000000     0.674780000000     0.0382229  
H85      H      0.199960000000     0.351740000000     0.629950000000     0.0366135  
H86      H      0.091640000000     0.193830000000     0.779530000000     0.0344071  
H87      H      0.241360000000     0.159550000000     0.712070000000     0.035863   
H88      H      0.165780000000     0.146290000000     0.756050000000     0.035325   
H89      H      0.078770000000     0.281280000000     0.760090000000     0.0402863  
H90      H      0.281450000000     0.361730000000     0.684160000000     0.101777   
H91      H      0.575830000000     0.353360000000     0.717820000000     0.102775   
H92      H      0.786290000000     0.362300000000     0.713110000000     0.0351495  
H93      H      0.789710000000     0.288120000000     0.761490000000     0.0401642  
H94      H      0.642170000000     0.196240000000     0.760050000000     0.0358298  
H95      H      0.722730000000     0.218410000000     0.778050000000     0.0361666  
H96      H      0.581520000000     0.247760000000     0.624750000000     0.0376479  
H97      H      0.723940000000     0.365540000000     0.632150000000     0.0367486  
H98      H      0.643410000000     0.342670000000     0.613650000000     0.0373266  
H99      H      0.576560000000     0.204780000000     0.695090000000     0.0375731  
H100     H      0.789140000000     0.254070000000     0.630200000000     0.102693   
H101     H      0.903870000000     0.016020000000     0.728670000000     0.100942   
H102     H      0.016430000000     0.849060000000     0.972320000000     0.0277833  
H103     H      0.993350000000     0.785730000000     0.920820000000     0.0383075  
H104     H      0.973310000000     0.067940000000     0.881500000000     0.0394842  
H105     H      0.021160000000     0.978010000000     0.926660000000     0.0369452  
H106     H      0.858030000000     0.035070000000     0.822100000000     0.0300074  
H107     H      0.927810000000     0.821220000000     0.865960000000     0.0353959  
H108     H      0.879920000000     0.911120000000     0.821150000000     0.0343308  
H109     H      0.896850000000     0.100470000000     0.845490000000     0.0428375  
H110     H      0.080320000000     0.858370000000     0.911840000000     0.0985933  
H111     H      0.961580000000     0.417910000000     0.562260000000     0.102519   
H112     H      0.042210000000     0.707720000000     0.469540000000     0.0283667  
H113     H      0.003210000000     0.759810000000     0.512410000000     0.0370469  
H114     H      0.915930000000     0.590570000000     0.608000000000     0.0336944  
H115     H      0.943250000000     0.692130000000     0.552880000000     0.0356827  
H116     H      0.989860000000     0.468140000000     0.681820000000     0.0397316  
H117     H      0.076060000000     0.600440000000     0.541790000000     0.0387139  
H118     H      0.048750000000     0.499080000000     0.597720000000     0.0383622  
H119     H      0.932430000000     0.490040000000     0.668330000000     0.0362617  
H120     H      0.099140000000     0.751950000000     0.530070000000     0.0982171  
N1       N      0.995790000000     0.781760000000     0.222690000000    -0.228266   
N2       N      0.747890000000     0.802100000000     0.200510000000    -0.228136   
N3       N      0.253680000000     0.859770000000     0.225790000000    -0.228548   
N4       N      0.491510000000     0.882160000000     0.233140000000    -0.228416   
N5       N      0.442510000000     0.218700000000     0.307240000000    -0.228328   
N6       N      0.644230000000     0.008250000000     0.306430000000    -0.22786    
N7       N      0.590240000000     0.671500000000     0.129380000000    -0.228565   
N8       N      0.497730000000     0.370050000000     0.992230000000    -0.228119   
N9       N      0.418740000000     0.223400000000     0.835990000000    -0.228321   
N10      N      0.512570000000     0.116840000000     0.102010000000    -0.228403   
N11      N      0.425900000000     0.477170000000     0.205760000000    -0.227604   
N12      N      0.442540000000     0.405310000000     0.525950000000    -0.228551   
N13      N      0.137650000000     0.730220000000     0.068070000000    -0.228857   
N14      N      0.091490000000     0.605690000000     0.768270000000    -0.228237   
N15      N      0.024100000000     0.978600000000     0.674790000000    -0.227839   
N16      N      0.112580000000     0.910550000000     0.378420000000    -0.228965   
N17      N      0.063840000000     0.205940000000     0.692970000000    -0.228877   
N18      N      0.298420000000     0.318270000000     0.667440000000    -0.227936   
N19      N      0.560120000000     0.311300000000     0.696740000000    -0.229099   
N20      N      0.805280000000     0.270350000000     0.669620000000    -0.228855   
N21      N      0.906780000000     0.059350000000     0.756610000000    -0.227388   
N22      N      0.051470000000     0.839110000000     0.890440000000    -0.228136   
N23      N      0.959130000000     0.415110000000     0.609120000000    -0.229027   
N24      N      0.067760000000     0.746710000000     0.551230000000    -0.22778    
O1       O      0.945720000000     0.299330000000     0.601420000000    -0.56213    
O2       O      0.922380000000     0.124790000000     0.674090000000    -0.564024   
O3       O      0.871010000000     0.228300000000     0.631560000000    -0.565242   
O4       O      0.997040000000     0.195840000000     0.643620000000    -0.568137   
O5       O      0.997800000000     0.245130000000     0.734550000000    -0.559987   
O6       O      0.871580000000     0.278970000000     0.721940000000    -0.561239   
O7       O      0.922150000000     0.175070000000     0.764570000000    -0.562708   
O8       O      0.946750000000     0.348730000000     0.692330000000    -0.563622   
O9       O      0.026130000000     0.757290000000     0.637530000000    -0.556902   
O10      O      0.019090000000     0.797300000000     0.804400000000    -0.559075   
O11      O      0.005450000000     0.869440000000     0.703310000000    -0.564425   
O12      O      0.038900000000     0.684420000000     0.738800000000    -0.56415    
O13      O      0.111550000000     0.716200000000     0.742960000000    -0.55967    
O14      O      0.078460000000     0.899170000000     0.699000000000    -0.559531   
O15      O      0.091360000000     0.831300000000     0.803450000000    -0.56426    
O16      O      0.099650000000     0.784210000000     0.638330000000    -0.56395    
O17      O      0.424510000000     0.218500000000     0.733690000000    -0.564163   
O18      O      0.436220000000     0.307280000000     0.582620000000    -0.563815   
O19      O      0.494150000000     0.261050000000     0.665930000000    -0.562456   
O20      O      0.366360000000     0.265010000000     0.650550000000    -0.562309   
O21      O      0.364600000000     0.367870000000     0.696580000000    -0.562808   
O22      O      0.492430000000     0.364480000000     0.711090000000    -0.563396   
O23      O      0.434050000000     0.410690000000     0.627710000000    -0.560289   
O24      O      0.423240000000     0.321500000000     0.779520000000    -0.560917   
O25      O      0.448640000000     0.320770000000     0.058120000000    -0.563063   
O26      O      0.421090000000     0.248860000000     0.212600000000    -0.563995   
O27      O      0.414050000000     0.373690000000     0.159620000000    -0.563401   
O28      O      0.455720000000     0.196300000000     0.111410000000    -0.559135   
O29      O      0.525550000000     0.223420000000     0.141890000000    -0.562405   
O30      O      0.483490000000     0.399750000000     0.192320000000    -0.559763   
O31      O      0.490920000000     0.275010000000     0.243730000000    -0.556823   
O32      O      0.518250000000     0.348010000000     0.089510000000    -0.557567   
O33      O      0.137430000000     0.725890000000     0.170230000000    -0.562519   
O34      O      0.125120000000     0.813630000000     0.322000000000    -0.561813   
O35      O      0.068110000000     0.750800000000     0.245560000000    -0.561025   
O36      O      0.194260000000     0.788880000000     0.246910000000    -0.561148   
O37      O      0.181350000000     0.890090000000     0.201190000000    -0.562108   
O38      O      0.055520000000     0.851970000000     0.199640000000    -0.562047   
O39      O      0.112350000000     0.914880000000     0.276270000000    -0.563663   
O40      O      0.124590000000     0.827090000000     0.124460000000    -0.562074   
O41      O      0.606680000000     0.787200000000     0.130690000000    -0.56149    
O42      O      0.633360000000     0.951710000000     0.217170000000    -0.563184   
O43      O      0.682910000000     0.850630000000     0.166290000000    -0.56604    
O44      O      0.557870000000     0.888900000000     0.181300000000    -0.566505   
O45      O      0.555620000000     0.829770000000     0.267640000000    -0.558667   
O46      O      0.681300000000     0.790610000000     0.252220000000    -0.557032   
O47      O      0.632380000000     0.892030000000     0.303240000000    -0.562405   
O48      O      0.604410000000     0.727970000000     0.217010000000    -0.562524   
V1       V      0.934030000000     0.210020000000     0.634060000000     1.40152    
V2       V      0.934640000000     0.263890000000     0.732020000000     1.39543    
V3       V      0.019470000000     0.775830000000     0.721010000000     1.40155    
V4       V      0.098200000000     0.808970000000     0.720890000000     1.40084    
V5       V      0.430340000000     0.258870000000     0.656370000000     1.4017     
V6       V      0.428470000000     0.370320000000     0.705510000000     1.39372    
V7       V      0.432080000000     0.283940000000     0.134150000000     1.40169    
V8       V      0.507340000000     0.312800000000     0.168050000000     1.39799    
V9       V      0.131730000000     0.765710000000     0.247990000000     1.39455    
V10      V      0.117940000000     0.875020000000     0.198530000000     1.39816    
V11      V      0.620360000000     0.871870000000     0.170400000000     1.40457    
V12      V      0.618380000000     0.807650000000     0.263490000000     1.38842    


