data_structure

_audit_creation_method RASPA-1.0
_audit_creation_date 2023-5-23
_audit_author_name 'Poobodin Mano'

_cell_length_a    29.7338
_cell_length_b    29.8449
_cell_length_c    28.2548
_cell_angle_alpha 90
_cell_angle_beta  89.9998
_cell_angle_gamma 89.9998
_cell_volume      25073.4

_symmetry_cell_setting          triclinic
_symmetry_space_group_name_Hall 'P 1'
_symmetry_space_group_name_H-M  'P 1'
_symmetry_Int_Tables_number     1

_symmetry_equiv_pos_as_xyz 'x,y,z'

loop_
_atom_site_label
_atom_site_type_symbol
_atom_site_fract_x
_atom_site_fract_y
_atom_site_fract_z
_atom_site_charge
C1       C      0.008760000000     0.085100000000     0.036860000000     0.485605   
C2       C      0.996090000000     0.916550000000     0.022850000000     0.485337   
C3       C      0.087240000000     0.993910000000     0.035340000000     0.485568   
C4       C      0.917900000000     0.007810000000     0.024430000000     0.484921   
C5       C      0.993140000000     0.068220000000     0.515980000000     0.486243   
C6       C      0.994440000000     0.900280000000     0.539900000000     0.486828   
C7       C      0.909250000000     0.982120000000     0.517720000000     0.48723    
C8       C      0.078120000000     0.986630000000     0.537990000000     0.48683    
C9       C      0.021770000000     0.511260000000     0.111200000000     0.486399   
C10      C      0.979960000000     0.486990000000     0.939590000000     0.486972   
C11      C      0.996880000000     0.583130000000     0.013410000000     0.485844   
C12      C      0.004840000000     0.415320000000     0.037690000000     0.485874   
C13      C      0.022570000000     0.504170000000     0.441690000000     0.486964   
C14      C      0.981390000000     0.465780000000     0.610600000000     0.486518   
C15      C      0.003040000000     0.567160000000     0.547760000000     0.487365   
C16      C      0.000990000000     0.402580000000     0.504990000000     0.486629   
C17      C      0.507000000000     0.025720000000     0.117010000000     0.48614    
C18      C      0.498360000000     0.979390000000     0.945030000000     0.486379   
C19      C      0.587520000000     0.006960000000     0.024500000000     0.485252   
C20      C      0.417980000000     0.998070000000     0.037530000000     0.4855     
C21      C      0.480490000000     0.026090000000     0.444370000000     0.486656   
C22      C      0.499050000000     0.980530000000     0.615710000000     0.48657    
C23      C      0.405260000000     0.002220000000     0.540400000000     0.487161   
C24      C      0.574160000000     0.004440000000     0.519930000000     0.487567   
C25      C      0.543510000000     0.920410000000     0.757070000000    -0.0435241  
C26      C      0.505320000000     0.921850000000     0.677240000000    -0.0128013  
C27      C      0.500290000000     0.917900000000     0.830040000000     0.0105209  
C28      C      0.503660000000     0.919120000000     0.730470000000     0.011124   
C29      C      0.498400000000     0.920640000000     0.883240000000    -0.0119598  
C30      C      0.462110000000     0.917320000000     0.753990000000    -0.0427781  
C31      C      0.460430000000     0.916840000000     0.803430000000    -0.0429958  
C32      C      0.541830000000     0.919950000000     0.806520000000    -0.0424637  
C33      C      0.454040000000     0.085260000000     0.249490000000    -0.0424953  
C34      C      0.505960000000     0.084500000000     0.178840000000    -0.0129408  
C35      C      0.483070000000     0.087440000000     0.329860000000     0.0108224  
C36      C      0.498010000000     0.086740000000     0.231450000000     0.0111989  
C37      C      0.475340000000     0.084640000000     0.382470000000    -0.0123535  
C38      C      0.534470000000     0.088410000000     0.262970000000    -0.0436812  
C39      C      0.527050000000     0.088620000000     0.311830000000    -0.0421105  
C40      C      0.446620000000     0.085470000000     0.298340000000    -0.0434542  
C41      C      0.924380000000     0.420860000000     0.755650000000    -0.0440251  
C42      C      0.924090000000     0.452610000000     0.672730000000    -0.0133976  
C43      C      0.920640000000     0.469430000000     0.824590000000     0.0104517  
C44      C      0.922170000000     0.458300000000     0.725660000000     0.0116352  
C45      C      0.922540000000     0.475580000000     0.877460000000    -0.0117997  
C46      C      0.919530000000     0.501350000000     0.745490000000    -0.0424488  
C47      C      0.918910000000     0.506890000000     0.794600000000    -0.0427093  
C48      C      0.923760000000     0.426400000000     0.804780000000    -0.042544   
C49      C      0.083190000000     0.478280000000     0.300300000000    -0.0427809  
C50      C      0.079840000000     0.516970000000     0.379620000000    -0.0129275  
C51      C      0.081650000000     0.520430000000     0.226740000000     0.0105588  
C52      C      0.081280000000     0.518280000000     0.326350000000     0.0114219  
C53      C      0.079300000000     0.521320000000     0.173510000000    -0.0121131  
C54      C      0.079220000000     0.559370000000     0.302240000000    -0.0436456  
C55      C      0.079260000000     0.560430000000     0.252780000000    -0.0429833  
C56      C      0.083250000000     0.479340000000     0.250850000000    -0.0423561  
C57      C      0.226890000000     0.984020000000     0.607340000000    -0.0442944  
C58      C      0.144850000000     0.997880000000     0.588720000000    -0.0129967  
C59      C      0.285940000000     0.028930000000     0.571380000000     0.0111249  
C60      C      0.194090000000     0.008520000000     0.582690000000     0.0112002  
C61      C      0.335170000000     0.039640000000     0.565460000000    -0.0125047  
C62      C      0.207540000000     0.043780000000     0.552960000000    -0.0418879  
C63      C      0.253120000000     0.053700000000     0.547070000000    -0.0439691  
C64      C      0.272450000000     0.994330000000     0.601940000000    -0.0420726  
C65      C      0.757950000000     0.949730000000     0.558340000000    -0.0432159  
C66      C      0.833010000000     0.989040000000     0.551470000000    -0.0128614  
C67      C      0.694200000000     0.971710000000     0.509790000000     0.0119479  
C68      C      0.784780000000     0.982510000000     0.536550000000     0.0114899  
C69      C      0.645320000000     0.967250000000     0.496610000000    -0.0131325  
C70      C      0.765890000000     0.009970000000     0.501420000000    -0.0427259  
C71      C      0.721050000000     0.004410000000     0.487920000000    -0.043369   
C72      C      0.712920000000     0.944560000000     0.545260000000    -0.0423767  
C73      C      0.953190000000     0.706400000000     0.509320000000    -0.0429061  
C74      C      0.963710000000     0.639360000000     0.562940000000    -0.0144685  
C75      C      0.993680000000     0.776070000000     0.522630000000     0.0116889  
C76      C      0.974480000000     0.686870000000     0.548600000000     0.0135686  
C77      C      0.004510000000     0.823600000000     0.508390000000    -0.0129906  
C78      C      0.005330000000     0.712410000000     0.574890000000    -0.0427876  
C79      C      0.015360000000     0.756370000000     0.561580000000    -0.0424085  
C80      C      0.962570000000     0.750680000000     0.496560000000    -0.0426745  
C81      C      0.040610000000     0.201250000000     0.505920000000    -0.0412406  
C82      C      0.992690000000     0.144520000000     0.549590000000    -0.0132768  
C83      C      0.025120000000     0.281150000000     0.510840000000     0.0117793  
C84      C      0.003240000000     0.191960000000     0.534750000000     0.0111574  
C85      C      0.039100000000     0.328830000000     0.500590000000    -0.0141491  
C86      C      0.977590000000     0.227720000000     0.552460000000    -0.0448646  
C87      C      0.988750000000     0.271920000000     0.541120000000    -0.0407675  
C88      C      0.051260000000     0.245410000000     0.493850000000    -0.04557    
C89      C      0.283160000000     0.997650000000     0.093190000000    -0.0421119  
C90      C      0.349340000000     0.955800000000     0.058440000000    -0.0131216  
C91      C      0.206050000000     0.976220000000     0.075530000000     0.0110403  
C92      C      0.299370000000     0.963470000000     0.063570000000     0.0111644  
C93      C      0.156080000000     0.982120000000     0.082800000000    -0.0128142  
C94      C      0.268510000000     0.935430000000     0.040350000000    -0.0440094  
C95      C      0.222260000000     0.941570000000     0.046530000000    -0.0420631  
C96      C      0.236900000000     0.004170000000     0.098880000000    -0.0438972  
C97      C      0.767790000000     0.999790000000     0.961290000000    -0.0440713  
C98      C      0.849040000000     0.020300000000     0.977140000000    -0.0129249  
C99      C      0.706170000000     0.040910000000     0.997690000000     0.011684   
C100     C      0.799210000000     0.027020000000     0.984740000000     0.0112134  
C101     C      0.656330000000     0.049010000000     0.003480000000    -0.0136292  
C102     C      0.783700000000     0.061590000000     0.014280000000    -0.0422914  
C103     C      0.737590000000     0.068310000000     0.020930000000    -0.0445143  
C104     C      0.721670000000     0.006890000000     0.967450000000    -0.042127   
C105     C      0.944960000000     0.781690000000     0.014970000000    -0.0419972  
C106     C      0.985320000000     0.842670000000     0.060370000000    -0.0131843  
C107     C      0.964250000000     0.703040000000     0.025100000000     0.0115017  
C108     C      0.979040000000     0.794150000000     0.046780000000     0.0110286  
C109     C      0.954050000000     0.654190000000     0.016190000000    -0.0139331  
C110     C      0.005340000000     0.760650000000     0.068040000000    -0.0440904  
C111     C      0.997720000000     0.715490000000     0.057660000000    -0.0415366  
C112     C      0.937750000000     0.736550000000     0.004080000000    -0.0452527  
C113     C      0.024970000000     0.235590000000     0.101660000000    -0.0442562  
C114     C      0.007510000000     0.153990000000     0.085570000000    -0.0130747  
C115     C      0.979990000000     0.295390000000     0.067260000000     0.0111453  
C116     C      0.998590000000     0.203330000000     0.078460000000     0.0109838  
C117     C      0.969020000000     0.344580000000     0.062780000000    -0.0129777  
C118     C      0.962510000000     0.217490000000     0.050040000000    -0.0415876  
C119     C      0.953490000000     0.263120000000     0.044220000000    -0.0441058  
C120     C      0.015560000000     0.281220000000     0.096360000000    -0.0419815  
H1       H      0.492960000000     0.992880000000     0.873500000000     0.103724   
H2       H      0.536780000000     0.906360000000     0.663610000000     0.0369848  
H3       H      0.476560000000     0.903270000000     0.661420000000     0.0395547  
H4       H      0.572900000000     0.921720000000     0.826450000000     0.0374233  
H5       H      0.575860000000     0.922440000000     0.739570000000     0.0373024  
H6       H      0.468550000000     0.902270000000     0.896930000000     0.0370537  
H7       H      0.430980000000     0.916940000000     0.734080000000     0.0376628  
H8       H      0.428040000000     0.916200000000     0.820960000000     0.0374479  
H9       H      0.528290000000     0.904000000000     0.899150000000     0.0387251  
H10      H      0.506520000000     0.994320000000     0.686980000000     0.103592   
H11      H      0.473180000000     0.012250000000     0.373090000000     0.103624   
H12      H      0.478280000000     0.101740000000     0.159560000000     0.0401875  
H13      H      0.537920000000     0.101660000000     0.169360000000     0.0364282  
H14      H      0.412480000000     0.083600000000     0.311580000000     0.0370109  
H15      H      0.425500000000     0.083330000000     0.225730000000     0.0377091  
H16      H      0.501260000000     0.104470000000     0.401660000000     0.040153   
H17      H      0.568660000000     0.088940000000     0.249750000000     0.0372208  
H18      H      0.555630000000     0.089220000000     0.335600000000     0.0378868  
H19      H      0.442320000000     0.099690000000     0.391920000000     0.0356913  
H20      H      0.512320000000     0.012330000000     0.188580000000     0.103512   
H21      H      0.995350000000     0.478440000000     0.868800000000     0.104002   
H22      H      0.910630000000     0.419270000000     0.662340000000     0.0351278  
H23      H      0.903010000000     0.478580000000     0.655210000000     0.0414646  
H24      H      0.926070000000     0.397160000000     0.827370000000     0.03734    
H25      H      0.927030000000     0.387410000000     0.741040000000     0.0367151  
H26      H      0.902850000000     0.505600000000     0.888220000000     0.0380348  
H27      H      0.918380000000     0.530670000000     0.722920000000     0.0382385  
H28      H      0.917420000000     0.540400000000     0.809230000000     0.0376304  
H29      H      0.906650000000     0.446590000000     0.895730000000     0.0376122  
H30      H      0.996930000000     0.449780000000     0.679940000000     0.103244   
H31      H      0.006460000000     0.519950000000     0.182010000000     0.103468   
H32      H      0.099160000000     0.487670000000     0.393090000000     0.0405058  
H33      H      0.095490000000     0.547670000000     0.394680000000     0.0367855  
H34      H      0.084190000000     0.448100000000     0.231360000000     0.0378582  
H35      H      0.084180000000     0.446220000000     0.318260000000     0.0379814  
H36      H      0.094070000000     0.552910000000     0.159550000000     0.0364618  
H37      H      0.077130000000     0.590560000000     0.321730000000     0.0373302  
H38      H      0.077090000000     0.592410000000     0.234800000000     0.0368475  
H39      H      0.099810000000     0.493620000000     0.158340000000     0.0394696  
H40      H      0.006940000000     0.520910000000     0.372590000000     0.103503   
H41      H      0.342970000000     0.971450000000     0.538580000000     0.102825   
H42      H      0.139620000000     0.968750000000     0.612650000000     0.0371351  
H43      H      0.128040000000     0.027160000000     0.605500000000     0.0401026  
H44      H      0.297270000000     0.975150000000     0.621370000000     0.0385284  
H45      H      0.217300000000     0.956990000000     0.630850000000     0.0359221  
H46      H      0.340170000000     0.068950000000     0.541700000000     0.0385864  
H47      H      0.182700000000     0.063450000000     0.534110000000     0.0392026  
H48      H      0.262700000000     0.080790000000     0.523650000000     0.0360187  
H49      H      0.349490000000     0.049340000000     0.600360000000     0.0386751  
H50      H      0.143400000000     0.983930000000     0.512880000000     0.102718   
H51      H      0.636090000000     0.035770000000     0.521240000000     0.102633   
H52      H      0.837490000000     0.024170000000     0.563700000000     0.03781    
H53      H      0.842010000000     0.966910000000     0.581730000000     0.040053   
H54      H      0.692680000000     0.919440000000     0.562920000000     0.036788   
H55      H      0.771700000000     0.928390000000     0.585750000000     0.0363787  
H56      H      0.642170000000     0.966020000000     0.457430000000     0.0351599  
H57      H      0.785920000000     0.035730000000     0.484520000000     0.0381818  
H58      H      0.707070000000     0.025950000000     0.460800000000     0.0371033  
H59      H      0.631110000000     0.935230000000     0.510180000000     0.0417438  
H60      H      0.851270000000     0.975310000000     0.477970000000     0.102602   
H61      H      0.989920000000     0.843390000000     0.581210000000     0.102139   
H62      H      0.952340000000     0.639790000000     0.600400000000     0.0333623  
H63      H      0.935810000000     0.625450000000     0.541220000000     0.0435046  
H64      H      0.945620000000     0.765030000000     0.466190000000     0.0362852  
H65      H      0.929160000000     0.687470000000     0.488580000000     0.0368752  
H66      H      0.040780000000     0.825820000000     0.499190000000     0.0366632  
H67      H      0.021810000000     0.698250000000     0.605630000000     0.0362644  
H68      H      0.039800000000     0.775190000000     0.581910000000     0.0375222  
H69      H      0.985650000000     0.833430000000     0.475980000000     0.0413657  
H70      H      0.034710000000     0.624310000000     0.571680000000     0.101529   
H71      H      0.970530000000     0.344970000000     0.479680000000     0.101728   
H72      H      0.018160000000     0.133930000000     0.576160000000     0.0404833  
H73      H      0.959390000000     0.142360000000     0.567390000000     0.0373323  
H74      H      0.080380000000     0.251710000000     0.471800000000     0.0353352  
H75      H      0.061790000000     0.174350000000     0.493070000000     0.0389156  
H76      H      0.060680000000     0.340760000000     0.530150000000     0.0434619  
H77      H      0.949380000000     0.221530000000     0.575810000000     0.0357416  
H78      H      0.969090000000     0.298880000000     0.556290000000     0.0408492  
H79      H      0.059740000000     0.330110000000     0.467800000000     0.0347333  
H80      H      0.994660000000     0.125600000000     0.474850000000     0.101855   
H81      H      0.151120000000     0.992120000000     0.006420000000     0.102939   
H82      H      0.363310000000     0.946530000000     0.093620000000     0.0393669  
H83      H      0.356690000000     0.927400000000     0.034130000000     0.0383565  
H84      H      0.225250000000     0.030790000000     0.121870000000     0.035946   
H85      H      0.306380000000     0.019240000000     0.111980000000     0.0386773  
H86      H      0.142240000000     0.951560000000     0.099980000000     0.0385624  
H87      H      0.280160000000     0.908480000000     0.017790000000     0.0359705  
H88      H      0.199050000000     0.919250000000     0.028700000000     0.0388615  
H89      H      0.148890000000     0.010390000000     0.107320000000     0.0383348  
H90      H      0.353880000000     0.024660000000     0.032660000000     0.102669   
H91      H      0.651560000000     0.980270000000     0.029460000000     0.102582   
H92      H      0.855850000000     0.992220000000     0.952260000000     0.0382209  
H93      H      0.863200000000     0.051100000000     0.960720000000     0.0387714  
H94      H      0.698000000000     0.985810000000     0.948630000000     0.0387853  
H95      H      0.778890000000     0.973250000000     0.937900000000     0.0358795  
H96      H      0.649730000000     0.077110000000     0.028400000000     0.038213   
H97      H      0.807360000000     0.083370000000     0.032200000000     0.0384516  
H98      H      0.726490000000     0.095140000000     0.043950000000     0.035908   
H99      H      0.641930000000     0.059370000000     0.968830000000     0.0395342  
H100     H      0.854090000000     0.009780000000     0.053430000000     0.102601   
H101     H      0.023960000000     0.644720000000     0.995280000000     0.102472   
H102     H      0.954580000000     0.854210000000     0.079220000000     0.0395141  
H103     H      0.013870000000     0.846990000000     0.085410000000     0.038455   
H104     H      0.910980000000     0.727780000000     0.979790000000     0.0357521  
H105     H      0.923640000000     0.806900000000     0.998940000000     0.0388834  
H106     H      0.935650000000     0.640580000000     0.047310000000     0.0423074  
H107     H      0.031260000000     0.769340000000     0.093370000000     0.0358441  
H108     H      0.017730000000     0.690210000000     0.075370000000     0.0403548  
H109     H      0.931450000000     0.650310000000     0.985100000000     0.0358281  
H110     H      0.994430000000     0.857100000000     0.985110000000     0.102411   
H111     H      0.037830000000     0.354260000000     0.037540000000     0.102525   
H112     H      0.038620000000     0.148280000000     0.106590000000     0.0365713  
H113     H      0.979160000000     0.139490000000     0.106200000000     0.0408717  
H114     H      0.035950000000     0.305530000000     0.115070000000     0.038303   
H115     H      0.052570000000     0.225490000000     0.124300000000     0.0357464  
H116     H      0.939460000000     0.349970000000     0.039290000000     0.0391213  
H117     H      0.941240000000     0.193160000000     0.032460000000     0.0394236  
H118     H      0.925470000000     0.273160000000     0.022140000000     0.0358917  
H119     H      0.959260000000     0.357810000000     0.098110000000     0.0384438  
H120     H      0.016420000000     0.148810000000     0.009140000000     0.102624   
N1       N      0.496270000000     0.967440000000     0.898780000000    -0.228522   
N2       N      0.503740000000     0.968730000000     0.661800000000    -0.228477   
N3       N      0.476170000000     0.037850000000     0.398230000000    -0.228415   
N4       N      0.508710000000     0.037710000000     0.163280000000    -0.228331   
N5       N      0.969170000000     0.480350000000     0.893490000000    -0.228619   
N6       N      0.970700000000     0.455940000000     0.656110000000    -0.228333   
N7       N      0.032620000000     0.517500000000     0.157350000000    -0.228605   
N8       N      0.033210000000     0.514260000000     0.396240000000    -0.228314   
N9       N      0.360050000000     0.001180000000     0.546550000000    -0.228715   
N10      N      0.123430000000     0.988640000000     0.542980000000    -0.228833   
N11      N      0.619450000000     0.005550000000     0.514400000000    -0.228317   
N12      N      0.863990000000     0.981020000000     0.511980000000    -0.228595   
N13      N      0.994830000000     0.855300000000     0.546770000000    -0.228279   
N14      N      0.004000000000     0.611060000000     0.560250000000    -0.227533   
N15      N      0.000100000000     0.358340000000     0.493960000000    -0.228491   
N16      N      0.993530000000     0.113250000000     0.509500000000    -0.22865    
N17      N      0.132640000000     0.990010000000     0.037870000000    -0.228286   
N18      N      0.372530000000     0.996110000000     0.041450000000    -0.228299   
N19      N      0.632980000000     0.008840000000     0.020590000000    -0.228135   
N20      N      0.872510000000     0.011960000000     0.021960000000    -0.228472   
N21      N      0.995100000000     0.628210000000     0.007340000000    -0.22853    
N22      N      0.992430000000     0.871380000000     0.018870000000    -0.228432   
N23      N      0.007300000000     0.370390000000     0.044560000000    -0.228302   
N24      N      0.011470000000     0.130370000000     0.040220000000    -0.228423   
O1       O      0.004630000000     0.061300000000     0.074500000000    -0.560391   
O2       O      0.995090000000     0.934860000000     0.063970000000    -0.561178   
O3       O      0.063550000000     0.992820000000     0.073360000000    -0.559975   
O4       O      0.936440000000     0.003050000000     0.065120000000    -0.562361   
O5       O      0.941580000000     0.008930000000     0.986390000000    -0.559272   
O6       O      0.068700000000     0.998530000000     0.994620000000    -0.561476   
O7       O      0.000370000000     0.940280000000     0.985220000000    -0.5611     
O8       O      0.010090000000     0.066850000000     0.995770000000    -0.561875   
O9       O      0.996850000000     0.042370000000     0.479870000000    -0.562038   
O10      O      0.999300000000     0.916270000000     0.498010000000    -0.560597   
O11      O      0.934630000000     0.977070000000     0.481380000000    -0.562949   
O12      O      0.061450000000     0.981300000000     0.496480000000    -0.563061   
O13      O      0.052700000000     0.990460000000     0.574510000000    -0.562425   
O14      O      0.925970000000     0.988240000000     0.559130000000    -0.562267   
O15      O      0.989260000000     0.926170000000     0.575760000000    -0.563871   
O16      O      0.989420000000     0.052170000000     0.557960000000    -0.562821   
O17      O      0.052980000000     0.508600000000     0.079880000000    -0.560646   
O18      O      0.021540000000     0.490630000000     0.951040000000    -0.562542   
O19      O      0.034250000000     0.562660000000     0.006390000000    -0.56164    
O20      O      0.040170000000     0.436580000000     0.024360000000    -0.561586   
O21      O      0.967490000000     0.435890000000     0.044750000000    -0.561161   
O22      O      0.961440000000     0.561690000000     0.026170000000    -0.561338   
O23      O      0.948740000000     0.489490000000     0.970910000000    -0.560567   
O24      O      0.980150000000     0.508010000000     0.099700000000    -0.563221   
O25      O      0.980980000000     0.502430000000     0.453690000000    -0.562552   
O26      O      0.950040000000     0.472580000000     0.580170000000    -0.561236   
O27      O      0.966170000000     0.549150000000     0.533620000000    -0.560502   
O28      O      0.964910000000     0.425790000000     0.500410000000    -0.562054   
O29      O      0.037600000000     0.420520000000     0.519900000000    -0.562497   
O30      O      0.039390000000     0.544190000000     0.550830000000    -0.563974   
O31      O      0.023000000000     0.468290000000     0.598830000000    -0.562867   
O32      O      0.053940000000     0.496430000000     0.471860000000    -0.561084   
O33      O      0.508800000000     0.983990000000     0.106250000000    -0.562459   
O34      O      0.502060000000     0.949140000000     0.977160000000    -0.559885   
O35      O      0.569060000000     0.969960000000     0.037070000000    -0.561959   
O36      O      0.441810000000     0.963220000000     0.046650000000    -0.560178   
O37      O      0.436420000000     0.035090000000     0.024960000000    -0.561752   
O38      O      0.563710000000     0.041850000000     0.015410000000    -0.559669   
O39      O      0.496700000000     0.021110000000     0.955810000000    -0.562735   
O40      O      0.503370000000     0.055950000000     0.084860000000    -0.560349   
O41      O      0.481910000000     0.984350000000     0.455130000000    -0.562944   
O42      O      0.496040000000     0.950110000000     0.583700000000    -0.560737   
O43      O      0.425530000000     0.966500000000     0.526850000000    -0.563212   
O44      O      0.552400000000     0.968080000000     0.511720000000    -0.561202   
O45      O      0.553800000000     0.040180000000     0.533220000000    -0.56429    
O46      O      0.427050000000     0.038570000000     0.548510000000    -0.562041   
O47      O      0.497550000000     0.022280000000     0.604980000000    -0.563019   
O48      O      0.483360000000     0.056530000000     0.476390000000    -0.560718   
V1       V      0.999770000000     0.997800000000     0.072390000000     1.39528    
V2       V      0.005380000000     0.003840000000     0.987340000000     1.39501    
V3       V      0.998390000000     0.978870000000     0.485800000000     1.39616    
V4       V      0.988980000000     0.989610000000     0.569960000000     1.40096    
V5       V      0.040160000000     0.499660000000     0.014630000000     1.39631    
V6       V      0.961540000000     0.498740000000     0.036140000000     1.39723    
V7       V      0.962600000000     0.487700000000     0.516200000000     1.39537    
V8       V      0.041400000000     0.482150000000     0.536070000000     1.4008     
V9       V      0.505640000000     0.963690000000     0.042610000000     1.39574    
V10      V      0.499850000000     0.041390000000     0.019430000000     1.39586    
V11      V      0.488910000000     0.964360000000     0.518520000000     1.39761    
V12      V      0.490480000000     0.042290000000     0.541590000000     1.39979    


