data_structure

_audit_creation_method RASPA-1.0
_audit_creation_date 2023-5-19
_audit_author_name 'Poobodin Mano'

_cell_length_a    29.0636
_cell_length_b    29.0529
_cell_length_c    29.0903
_cell_angle_alpha 90
_cell_angle_beta  90
_cell_angle_gamma 90
_cell_volume      24563.3

_symmetry_cell_setting          triclinic
_symmetry_space_group_name_Hall 'P 1'
_symmetry_space_group_name_H-M  'P 1'
_symmetry_Int_Tables_number     1

_symmetry_equiv_pos_as_xyz 'x,y,z'

loop_
_atom_site_label
_atom_site_type_symbol
_atom_site_fract_x
_atom_site_fract_y
_atom_site_fract_z
_atom_site_charge
C1       C      0.998030000000     0.090080000000     0.506280000000     0.476108   
C2       C      0.008250000000     0.916260000000     0.506270000000     0.476228   
C3       C      0.916360000000     0.998550000000     0.506470000000     0.477981   
C4       C      0.089930000000     0.007790000000     0.506470000000     0.477685   
C5       C      0.994380000000     0.416660000000     0.503260000000     0.475303   
C6       C      0.011750000000     0.589680000000     0.503280000000     0.475082   
C7       C      0.003070000000     0.503180000000     0.417070000000     0.476352   
C8       C      0.003050000000     0.503150000000     0.590670000000     0.476283   
C9       C      0.503130000000     0.003130000000     0.586140000000     0.476452   
C10      C      0.503150000000     0.003140000000     0.412340000000     0.47658    
C11      C      0.590040000000     0.002080000000     0.499390000000     0.477484   
C12      C      0.416250000000     0.004190000000     0.499370000000     0.477624   
C13      C      0.502260000000     0.089770000000     0.999260000000     0.474445   
C14      C      0.503820000000     0.916430000000     0.999250000000     0.474358   
C15      C      0.503040000000     0.003100000000     0.085850000000     0.472993   
C16      C      0.503040000000     0.003110000000     0.912610000000     0.473138   
C17      C      0.002980000000     0.503100000000     0.917210000000     0.476582   
C18      C      0.002990000000     0.503110000000     0.090830000000     0.476945   
C19      C      0.916330000000     0.496260000000     0.004570000000     0.47543    
C20      C      0.089640000000     0.509960000000     0.004560000000     0.475631   
C21      C      0.500120000000     0.416460000000     0.001870000000     0.474471   
C22      C      0.505850000000     0.589750000000     0.001850000000     0.474465   
C23      C      0.589680000000     0.499700000000     0.002000000000     0.473044   
C24      C      0.416290000000     0.506510000000     0.001990000000     0.473052   
C25      C      0.841420000000     0.526060000000     0.031980000000    -0.0177028  
C26      C      0.664130000000     0.470610000000     0.970350000000    -0.0177245  
C27      C      0.664460000000     0.522440000000     0.036240000000    -0.0176984  
C28      C      0.711980000000     0.510500000000     0.022330000000     0.0117245  
C29      C      0.711870000000     0.478450000000     0.987060000000     0.0106202  
C30      C      0.752980000000     0.458400000000     0.971310000000    -0.0654095  
C31      C      0.842160000000     0.458980000000     0.981660000000    -0.0177932  
C32      C      0.753050000000     0.528400000000     0.039890000000    -0.066573   
C33      C      0.794160000000     0.474410000000     0.990950000000     0.0108242  
C34      C      0.794040000000     0.510340000000     0.022270000000     0.0117894  
C35      C      0.341840000000     0.535580000000     0.970340000000    -0.0176614  
C36      C      0.164540000000     0.480160000000     0.031980000000    -0.0176028  
C37      C      0.163800000000     0.547230000000     0.981650000000    -0.0177646  
C38      C      0.211810000000     0.531810000000     0.990960000000     0.0108348  
C39      C      0.211920000000     0.495880000000     0.022270000000     0.0117245  
C40      C      0.252920000000     0.477820000000     0.039900000000    -0.0665286  
C41      C      0.341510000000     0.483770000000     0.036230000000    -0.0176103  
C42      C      0.252990000000     0.547810000000     0.971300000000    -0.0654369  
C43      C      0.293990000000     0.495700000000     0.022320000000     0.0116784  
C44      C      0.294090000000     0.527740000000     0.987050000000     0.0106217  
C45      C      0.471470000000     0.841710000000     0.025490000000    -0.0174728  
C46      C      0.531910000000     0.664210000000     0.968360000000    -0.0175052  
C47      C      0.480870000000     0.664510000000     0.034870000000    -0.0173381  
C48      C      0.490230000000     0.712060000000     0.019000000000     0.0110964  
C49      C      0.521830000000     0.711970000000     0.983320000000     0.0111968  
C50      C      0.540100000000     0.753080000000     0.965920000000    -0.0660894  
C51      C      0.537630000000     0.841940000000     0.973960000000    -0.017462   
C52      C      0.471050000000     0.753110000000     0.035460000000    -0.0660801  
C53      C      0.522850000000     0.794200000000     0.984310000000     0.0111572  
C54      C      0.487390000000     0.794150000000     0.016160000000     0.0111475  
C55      C      0.525120000000     0.341710000000     0.034890000000    -0.0173449  
C56      C      0.468430000000     0.164260000000     0.973960000000    -0.0175207  
C57      C      0.534600000000     0.164500000000     0.025490000000    -0.0174619  
C58      C      0.518660000000     0.212060000000     0.016170000000     0.0111233  
C59      C      0.483200000000     0.212000000000     0.984320000000     0.0111629  
C60      C      0.465930000000     0.253120000000     0.965930000000    -0.0661014  
C61      C      0.474080000000     0.341990000000     0.968380000000    -0.0175021  
C62      C      0.534980000000     0.253110000000     0.035480000000    -0.0661007  
C63      C      0.484190000000     0.294230000000     0.983340000000     0.0111932  
C64      C      0.515780000000     0.294150000000     0.019010000000     0.0110912  
C65      C      0.534200000000     0.031220000000     0.838070000000    -0.0176272  
C66      C      0.480810000000     0.967600000000     0.660690000000    -0.0173901  
C67      C      0.525410000000     0.038660000000     0.660710000000    -0.0172802  
C68      C      0.517270000000     0.022300000000     0.708330000000     0.0107513  
C69      C      0.488920000000     0.983960000000     0.708320000000     0.0118286  
C70      C      0.471540000000     0.965590000000     0.749370000000    -0.0662702  
C71      C      0.471900000000     0.975030000000     0.838050000000    -0.0177152  
C72      C      0.534610000000     0.040670000000     0.749390000000    -0.0656596  
C73      C      0.486630000000     0.985860000000     0.790430000000     0.0118373  
C74      C      0.519500000000     0.020400000000     0.790440000000     0.010752   
C75      C      0.534160000000     0.974960000000     0.160400000000    -0.0177453  
C76      C      0.481080000000     0.038820000000     0.337780000000    -0.0173376  
C77      C      0.525190000000     0.967450000000     0.337780000000    -0.0174862  
C78      C      0.517180000000     0.983880000000     0.290150000000     0.0118964  
C79      C      0.489040000000     0.022380000000     0.290150000000     0.010793   
C80      C      0.471710000000     0.040790000000     0.249100000000    -0.0656786  
C81      C      0.471950000000     0.031240000000     0.160410000000    -0.0176555  
C82      C      0.534470000000     0.965450000000     0.249090000000    -0.0662769  
C83      C      0.486690000000     0.020430000000     0.208040000000     0.0107765  
C84      C      0.519460000000     0.985790000000     0.208030000000     0.0118596  
C85      C      0.028270000000     0.469630000000     0.842620000000    -0.0173727  
C86      C      0.970320000000     0.529390000000     0.665260000000    -0.0174684  
C87      C      0.035750000000     0.476890000000     0.665260000000    -0.0173536  
C88      C      0.020560000000     0.486970000000     0.712890000000     0.0109099  
C89      C      0.985490000000     0.519280000000     0.712880000000     0.0112499  
C90      C      0.968850000000     0.538290000000     0.753940000000    -0.066082   
C91      C      0.977710000000     0.536570000000     0.842620000000    -0.0173362  
C92      C      0.037170000000     0.467940000000     0.753940000000    -0.0659269  
C93      C      0.987360000000     0.521110000000     0.794990000000     0.0112285  
C94      C      0.018640000000     0.485110000000     0.795000000000     0.010932   
C95      C      0.027710000000     0.469220000000     0.165310000000    -0.0174823  
C96      C      0.969550000000     0.528420000000     0.342600000000    -0.0175419  
C97      C      0.036580000000     0.477950000000     0.342590000000    -0.0175019  
C98      C      0.020870000000     0.487320000000     0.294990000000     0.0113518  
C99      C      0.985230000000     0.519010000000     0.294990000000     0.01167    
C100     C      0.968640000000     0.538100000000     0.253950000000    -0.0660894  
C101     C      0.978300000000     0.537040000000     0.165310000000    -0.0175099  
C102     C      0.037430000000     0.468210000000     0.253950000000    -0.0659048  
C103     C      0.987460000000     0.521210000000     0.212920000000     0.0116856  
C104     C      0.018580000000     0.485070000000     0.212920000000     0.0113542  
C105     C      0.164910000000     0.983910000000     0.539580000000    -0.0173869  
C106     C      0.341730000000     0.039130000000     0.475910000000    -0.0173662  
C107     C      0.341750000000     0.971620000000     0.525700000000    -0.0174726  
C108     C      0.294220000000     0.988490000000     0.517950000000     0.0121392  
C109     C      0.294050000000     0.024420000000     0.486620000000     0.0109944  
C110     C      0.252790000000     0.042040000000     0.468900000000    -0.065735   
C111     C      0.163970000000     0.033850000000     0.472230000000    -0.0174881  
C112     C      0.253400000000     0.972630000000     0.538120000000    -0.0662624  
C113     C      0.211850000000     0.023930000000     0.486840000000     0.011059   
C114     C      0.212270000000     0.992510000000     0.522680000000     0.0120886  
C115     C      0.842320000000     0.972480000000     0.472230000000    -0.0177931  
C116     C      0.664540000000     0.034660000000     0.525730000000    -0.0174118  
C117     C      0.664560000000     0.967150000000     0.475930000000    -0.017519   
C118     C      0.712240000000     0.981870000000     0.486640000000     0.0120726  
C119     C      0.712070000000     0.017800000000     0.517970000000     0.0110939  
C120     C      0.752880000000     0.033670000000     0.538140000000    -0.0657199  
C121     C      0.841380000000     0.022420000000     0.539590000000    -0.0175992  
C122     C      0.753500000000     0.964270000000     0.468920000000    -0.0663062  
C123     C      0.794020000000     0.013810000000     0.522690000000     0.0110746  
C124     C      0.794440000000     0.982390000000     0.486850000000     0.0121482  
C125     C      0.047310000000     0.663550000000     0.529360000000    -0.0179992  
C126     C      0.990470000000     0.841650000000     0.468960000000    -0.0172469  
C127     C      0.033780000000     0.841640000000     0.540710000000    -0.0176281  
C128     C      0.028310000000     0.793970000000     0.522750000000     0.0107281  
C129     C      0.000680000000     0.794050000000     0.483950000000     0.0117209  
C130     C      0.984870000000     0.753070000000     0.464280000000    -0.0662743  
C131     C      0.985920000000     0.664650000000     0.472300000000    -0.0178759  
C132     C      0.046540000000     0.752750000000     0.540390000000    -0.0653394  
C133     C      0.000750000000     0.711960000000     0.483660000000     0.0119462  
C134     C      0.033000000000     0.711660000000     0.518740000000     0.0109542  
C135     C      0.020210000000     0.341700000000     0.472240000000    -0.0181393  
C136     C      0.972490000000     0.164690000000     0.540720000000    -0.0175996  
C137     C      0.015780000000     0.164690000000     0.468960000000    -0.0176594  
C138     C      0.005550000000     0.212290000000     0.483930000000     0.0119084  
C139     C      0.977920000000     0.212360000000     0.522750000000     0.0107294  
C140     C      0.959670000000     0.253570000000     0.540380000000    -0.0653154  
C141     C      0.958840000000     0.342770000000     0.529340000000    -0.0180775  
C142     C      0.021320000000     0.253280000000     0.464250000000    -0.0665971  
C143     C      0.973180000000     0.294660000000     0.518720000000     0.0109966  
C144     C      0.005420000000     0.294380000000     0.483630000000     0.0121234  
H1       H      0.658710000000     0.560170000000     0.033630000000     0.0374834  
H2       H      0.660140000000     0.483700000000     0.934680000000     0.0417676  
H3       H      0.752950000000     0.432110000000     0.944950000000     0.0418819  
H4       H      0.753110000000     0.555320000000     0.065620000000     0.0416697  
H5       H      0.846520000000     0.561540000000     0.018610000000     0.0430397  
H6       H      0.848020000000     0.423930000000     0.995790000000     0.0413455  
H7       H      0.657380000000     0.509650000000     0.071550000000     0.0422284  
H8       H      0.654960000000     0.433550000000     0.972740000000     0.0372557  
H9       H      0.849720000000     0.460380000000     0.944240000000     0.0367619  
H10      H      0.848890000000     0.524100000000     0.069400000000     0.036587   
H11      H      0.156260000000     0.545810000000     0.944220000000     0.0367316  
H12      H      0.159450000000     0.444670000000     0.018610000000     0.0429856  
H13      H      0.252850000000     0.450890000000     0.065620000000     0.0416449  
H14      H      0.253020000000     0.574080000000     0.944930000000     0.0418985  
H15      H      0.345820000000     0.522490000000     0.934660000000     0.0417323  
H16      H      0.348580000000     0.496570000000     0.071540000000     0.0422032  
H17      H      0.157940000000     0.582280000000     0.995760000000     0.0413344  
H18      H      0.157070000000     0.482120000000     0.069400000000     0.0365448  
H19      H      0.347260000000     0.446030000000     0.033640000000     0.0374469  
H20      H      0.351010000000     0.572640000000     0.972720000000     0.0372416  
H21      H      0.443450000000     0.656790000000     0.032900000000     0.0375011  
H22      H      0.518620000000     0.658250000000     0.933030000000     0.0419858  
H23      H      0.566310000000     0.753070000000     0.939480000000     0.0418776  
H24      H      0.444790000000     0.753120000000     0.061860000000     0.041932   
H25      H      0.435920000000     0.846710000000     0.012320000000     0.0419813  
H26      H      0.573070000000     0.848040000000     0.986970000000     0.0419584  
H27      H      0.494340000000     0.659370000000     0.070250000000     0.0418615  
H28      H      0.569400000000     0.656990000000     0.970600000000     0.0373114  
H29      H      0.535120000000     0.848990000000     0.936490000000     0.0373652  
H30      H      0.473760000000     0.849600000000     0.062810000000     0.0373926  
H31      H      0.532300000000     0.156610000000     0.062810000000     0.0373522  
H32      H      0.433000000000     0.158140000000     0.986970000000     0.0419415  
H33      H      0.439720000000     0.253110000000     0.939490000000     0.0418549  
H34      H      0.561240000000     0.253110000000     0.061870000000     0.041928   
H35      H      0.511640000000     0.346840000000     0.070270000000     0.0418542  
H36      H      0.487370000000     0.347950000000     0.933050000000     0.0419794  
H37      H      0.570150000000     0.159520000000     0.012330000000     0.0419318  
H38      H      0.470950000000     0.157210000000     0.936490000000     0.0373338  
H39      H      0.436590000000     0.349190000000     0.970620000000     0.037302   
H40      H      0.562530000000     0.349440000000     0.032920000000     0.0375007  
H41      H      0.562880000000     0.040140000000     0.653180000000     0.0361635  
H42      H      0.497500000000     0.933620000000     0.655230000000     0.0421379  
H43      H      0.447580000000     0.937060000000     0.749360000000     0.0418046  
H44      H      0.558570000000     0.069200000000     0.749400000000     0.0416124  
H45      H      0.570530000000     0.020630000000     0.843550000000     0.0420918  
H46      H      0.435570000000     0.985630000000     0.843510000000     0.0422373  
H47      H      0.508720000000     0.072640000000     0.655230000000     0.0420474  
H48      H      0.443350000000     0.966120000000     0.653140000000     0.0362895  
H49      H      0.476900000000     0.937860000000     0.845580000000     0.037117   
H50      H      0.529190000000     0.068390000000     0.845610000000     0.0370302  
H51      H      0.562640000000     0.965710000000     0.345310000000     0.0362983  
H52      H      0.498020000000     0.072680000000     0.343220000000     0.0420846  
H53      H      0.447870000000     0.069410000000     0.249100000000     0.041619   
H54      H      0.558320000000     0.936830000000     0.249080000000     0.0418031  
H55      H      0.570510000000     0.985510000000     0.154930000000     0.0422626  
H56      H      0.435600000000     0.020680000000     0.154970000000     0.0421081  
H57      H      0.508260000000     0.933590000000     0.343240000000     0.0421945  
H58      H      0.443630000000     0.040570000000     0.345350000000     0.0361604  
H59      H      0.476980000000     0.068400000000     0.152850000000     0.0368827  
H60      H      0.529120000000     0.937790000000     0.152850000000     0.036972   
H61      H      0.032810000000     0.439480000000     0.657820000000     0.0372135  
H62      H      0.934650000000     0.516810000000     0.659680000000     0.0419209  
H63      H      0.942900000000     0.565020000000     0.753940000000     0.0418664  
H64      H      0.063120000000     0.441220000000     0.753950000000     0.0418121  
H65      H      0.014650000000     0.434310000000     0.848180000000     0.0418224  
H66      H      0.991310000000     0.571890000000     0.848190000000     0.0418715  
H67      H      0.071430000000     0.489480000000     0.659710000000     0.0418723  
H68      H      0.973270000000     0.566800000000     0.657830000000     0.0373031  
H69      H      0.940240000000     0.534720000000     0.850040000000     0.0373261  
H70      H      0.065730000000     0.471480000000     0.850060000000     0.037313   
H71      H      0.071820000000     0.491770000000     0.347990000000     0.0421782  
H72      H      0.971200000000     0.565870000000     0.350200000000     0.0358306  
H73      H      0.942510000000     0.564650000000     0.253960000000     0.0415125  
H74      H      0.063560000000     0.441660000000     0.253950000000     0.0414453  
H75      H      0.065170000000     0.470280000000     0.157690000000     0.0358699  
H76      H      0.940830000000     0.535970000000     0.157720000000     0.0359085  
H77      H      0.034930000000     0.440490000000     0.350210000000     0.0357802  
H78      H      0.934310000000     0.514600000000     0.348010000000     0.0422098  
H79      H      0.992660000000     0.572070000000     0.159890000000     0.0422069  
H80      H      0.013350000000     0.434180000000     0.159930000000     0.0421273  
H81      H      0.345940000000     0.936390000000     0.511430000000     0.0422031  
H82      H      0.348180000000     0.037670000000     0.438270000000     0.0358915  
H83      H      0.252570000000     0.068320000000     0.442540000000     0.0415091  
H84      H      0.253620000000     0.946200000000     0.564350000000     0.041785   
H85      H      0.156830000000     0.946520000000     0.538510000000     0.0361508  
H86      H      0.156820000000     0.071400000000     0.473810000000     0.035884   
H87      H      0.350530000000     0.972730000000     0.562880000000     0.0360787  
H88      H      0.348340000000     0.074130000000     0.489850000000     0.0422079  
H89      H      0.157610000000     0.019890000000     0.437230000000     0.0423325  
H90      H      0.160470000000     0.998150000000     0.574760000000     0.0421094  
H91      H      0.657970000000     0.932150000000     0.489870000000     0.042308   
H92      H      0.655760000000     0.033540000000     0.562910000000     0.0359634  
H93      H      0.752660000000     0.060100000000     0.564360000000     0.0416188  
H94      H      0.753730000000     0.937980000000     0.442550000000     0.0416839  
H95      H      0.849480000000     0.934930000000     0.473820000000     0.036012   
H96      H      0.849450000000     0.059800000000     0.538510000000     0.0360984  
H97      H      0.658110000000     0.968620000000     0.438300000000     0.0360544  
H98      H      0.660330000000     0.069890000000     0.511450000000     0.0421397  
H99      H      0.845820000000     0.008170000000     0.574760000000     0.041984   
H100     H      0.848670000000     0.986440000000     0.437230000000     0.0425266  
H101     H      0.070790000000     0.851010000000     0.542980000000     0.0361587  
H102     H      0.007550000000     0.848980000000     0.435570000000     0.0423965  
H103     H      0.961010000000     0.753160000000     0.435700000000     0.0415166  
H104     H      0.069580000000     0.752630000000     0.569620000000     0.0417411  
H105     H      0.083620000000     0.657670000000     0.518970000000     0.0413729  
H106     H      0.949230000000     0.659720000000     0.481930000000     0.0433442  
H107     H      0.016380000000     0.845250000000     0.574530000000     0.0418088  
H108     H      0.952710000000     0.847340000000     0.466880000000     0.0365057  
H109     H      0.991680000000     0.657200000000     0.435260000000     0.0362187  
H110     H      0.041970000000     0.655850000000     0.566410000000     0.0362027  
H111     H      0.053550000000     0.159030000000     0.466860000000     0.0365157  
H112     H      0.989910000000     0.161090000000     0.574540000000     0.0417938  
H113     H      0.936650000000     0.253690000000     0.569630000000     0.0417296  
H114     H      0.045170000000     0.253200000000     0.435660000000     0.0415441  
H115     H      0.056900000000     0.346650000000     0.481870000000     0.0433736  
H116     H      0.922520000000     0.348630000000     0.518960000000     0.0413921  
H117     H      0.998700000000     0.157350000000     0.435560000000     0.0425446  
H118     H      0.935490000000     0.155300000000     0.543000000000     0.0361207  
H119     H      0.964190000000     0.350480000000     0.566380000000     0.0362352  
H120     H      0.014440000000     0.349140000000     0.435210000000     0.0362287  
N1       N      0.869810000000     0.493050000000     0.006580000000    -0.180752   
N2       N      0.636320000000     0.497880000000     0.002450000000    -0.180413   
N3       N      0.369640000000     0.508320000000     0.002440000000    -0.180387   
N4       N      0.136160000000     0.513160000000     0.006570000000    -0.180819   
N5       N      0.504230000000     0.869800000000     0.999450000000    -0.180929   
N6       N      0.506510000000     0.636380000000     0.001840000000    -0.181011   
N7       N      0.499470000000     0.369820000000     0.001860000000    -0.180961   
N8       N      0.501840000000     0.136410000000     0.999460000000    -0.180892   
N9       N      0.503040000000     0.003120000000     0.866010000000    -0.1806     
N10      N      0.503120000000     0.003130000000     0.632740000000    -0.181297   
N11      N      0.503040000000     0.003090000000     0.132450000000    -0.180545   
N12      N      0.503140000000     0.003140000000     0.365740000000    -0.181236   
N13      N      0.002980000000     0.503100000000     0.870590000000    -0.181354   
N14      N      0.003050000000     0.503150000000     0.637290000000    -0.181307   
N15      N      0.002990000000     0.503120000000     0.137390000000    -0.181101   
N16      N      0.003070000000     0.503190000000     0.370510000000    -0.181003   
N17      N      0.136500000000     0.009160000000     0.506510000000    -0.181491   
N18      N      0.369650000000     0.004750000000     0.499950000000    -0.181419   
N19      N      0.869780000000     0.997170000000     0.506510000000    -0.181147   
N20      N      0.636630000000     0.001530000000     0.499970000000    -0.181427   
N21      N      0.016020000000     0.636080000000     0.500890000000    -0.180607   
N22      N      0.010530000000     0.869620000000     0.505720000000    -0.180915   
N23      N      0.990110000000     0.370250000000     0.500840000000    -0.180459   
N24      N      0.995740000000     0.136720000000     0.505730000000    -0.180801   
O1       O      0.000050000000     0.068310000000     0.467960000000    -0.559376   
O2       O      0.006240000000     0.938030000000     0.467960000000    -0.559224   
O3       O      0.938010000000     0.998250000000     0.468030000000    -0.557735   
O4       O      0.068280000000     0.008090000000     0.468030000000    -0.557878   
O5       O      0.068380000000     0.005440000000     0.544890000000    -0.556487   
O6       O      0.937910000000     0.000890000000     0.544890000000    -0.556519   
O7       O      0.007560000000     0.937770000000     0.544840000000    -0.55234    
O8       O      0.998730000000     0.068570000000     0.544850000000    -0.55244    
O9       O      0.958490000000     0.442080000000     0.508250000000    -0.550777   
O10      O      0.971630000000     0.571910000000     0.499140000000    -0.558228   
O11      O      0.964600000000     0.504930000000     0.438690000000    -0.555331   
O12      O      0.965590000000     0.511820000000     0.568990000000    -0.556012   
O13      O      0.040520000000     0.494490000000     0.569000000000    -0.555926   
O14      O      0.041530000000     0.501420000000     0.438700000000    -0.555528   
O15      O      0.047630000000     0.564250000000     0.508280000000    -0.550861   
O16      O      0.034490000000     0.434430000000     0.499120000000    -0.558444   
O17      O      0.501980000000     0.964650000000     0.564500000000    -0.556445   
O18      O      0.503440000000     0.964640000000     0.433970000000    -0.556398   
O19      O      0.567980000000     0.963860000000     0.498020000000    -0.55712    
O20      O      0.437420000000     0.965460000000     0.500540000000    -0.557205   
O21      O      0.438310000000     0.042410000000     0.498010000000    -0.557332   
O22      O      0.568870000000     0.040820000000     0.500560000000    -0.557283   
O23      O      0.502860000000     0.041640000000     0.433980000000    -0.556669   
O24      O      0.504290000000     0.041620000000     0.564500000000    -0.556567   
O25      O      0.464750000000     0.067710000000     0.991770000000    -0.553215   
O26      O      0.465920000000     0.937870000000     0.006690000000    -0.553018   
O27      O      0.465290000000     0.010350000000     0.064120000000    -0.552026   
O28      O      0.465420000000     0.995250000000     0.934350000000    -0.55178    
O29      O      0.540670000000     0.010970000000     0.934350000000    -0.552102   
O30      O      0.540790000000     0.995850000000     0.064110000000    -0.551711   
O31      O      0.541330000000     0.938500000000     0.991760000000    -0.552948   
O32      O      0.540160000000     0.068340000000     0.006700000000    -0.553281   
O33      O      0.010570000000     0.465390000000     0.938890000000    -0.556195   
O34      O      0.004200000000     0.464620000000     0.069220000000    -0.555927   
O35      O      0.940990000000     0.459790000000     0.999970000000    -0.551383   
O36      O      0.071030000000     0.470180000000     0.008390000000    -0.558885   
O37      O      0.064980000000     0.546420000000     0.999960000000    -0.551674   
O38      O      0.934940000000     0.536040000000     0.008390000000    -0.558877   
O39      O      0.001770000000     0.541610000000     0.069210000000    -0.555912   
O40      O      0.995390000000     0.540810000000     0.938880000000    -0.556194   
O41      O      0.493480000000     0.438390000000     0.964130000000    -0.551297   
O42      O      0.512490000000     0.567810000000     0.964120000000    -0.551317   
O43      O      0.567790000000     0.493420000000     0.964150000000    -0.548796   
O44      O      0.438180000000     0.512780000000     0.964150000000    -0.548991   
O45      O      0.437900000000     0.498280000000     0.039580000000    -0.555248   
O46      O      0.568070000000     0.507930000000     0.039580000000    -0.555226   
O47      O      0.498020000000     0.568210000000     0.039560000000    -0.555534   
O48      O      0.507940000000     0.438000000000     0.039570000000    -0.555519   
V1       V      0.003140000000     0.003170000000     0.464930000000     1.40166    
V2       V      0.003150000000     0.003170000000     0.547990000000     1.3852     
V3       V      0.961860000000     0.507780000000     0.503870000000     1.38996    
V4       V      0.044260000000     0.498560000000     0.503870000000     1.38993    
V5       V      0.502660000000     0.961550000000     0.499240000000     1.39529    
V6       V      0.503630000000     0.044720000000     0.499240000000     1.3949     
V7       V      0.461860000000     0.002760000000     0.999230000000     1.38147    
V8       V      0.544220000000     0.003450000000     0.999230000000     1.3816     
V9       V      0.006720000000     0.461790000000     0.004030000000     1.39053    
V10      V      0.999250000000     0.544420000000     0.004020000000     1.39116    
V11      V      0.502980000000     0.503100000000     0.960660000000     1.37165    
V12      V      0.502980000000     0.503110000000     0.042990000000     1.39281    


