data_structure

_audit_creation_method RASPA-1.0
_audit_creation_date 2023-5-23
_audit_author_name 'Poobodin Mano'

_cell_length_a    29.0808
_cell_length_b    29.0807
_cell_length_c    29.1387
_cell_angle_alpha 90
_cell_angle_beta  89.9998
_cell_angle_gamma 89.9998
_cell_volume      24642.3

_symmetry_cell_setting          triclinic
_symmetry_space_group_name_Hall 'P 1'
_symmetry_space_group_name_H-M  'P 1'
_symmetry_Int_Tables_number     1

_symmetry_equiv_pos_as_xyz 'x,y,z'

loop_
_atom_site_label
_atom_site_type_symbol
_atom_site_fract_x
_atom_site_fract_y
_atom_site_fract_z
_atom_site_charge
C1       C      0.004390000000     0.086910000000     0.001150000000     0.477433   
C2       C      0.003910000000     0.913430000000     0.002350000000     0.477846   
C3       C      0.090570000000     0.999280000000     0.992910000000     0.475212   
C4       C      0.917670000000     0.999810000000     0.010570000000     0.474886   
C5       C      0.999150000000     0.090280000000     0.510400000000     0.475049   
C6       C      0.999590000000     0.917370000000     0.492720000000     0.475132   
C7       C      0.913250000000     0.003670000000     0.500990000000     0.477791   
C8       C      0.086730000000     0.004060000000     0.502110000000     0.477696   
C9       C      0.001300000000     0.498140000000     0.087850000000     0.476431   
C10      C      0.008890000000     0.502360000000     0.914430000000     0.476485   
C11      C      0.004180000000     0.587020000000     0.003060000000     0.478993   
C12      C      0.005970000000     0.413440000000     0.999200000000     0.479      
C13      C      0.002420000000     0.499460000000     0.414540000000     0.475618   
C14      C      0.007360000000     0.507900000000     0.587770000000     0.475584   
C15      C      0.004740000000     0.590600000000     0.496620000000     0.474979   
C16      C      0.004640000000     0.416940000000     0.505680000000     0.474821   
C17      C      0.499740000000     0.002510000000     0.088950000000     0.475835   
C18      C      0.508180000000     0.007450000000     0.915720000000     0.475563   
C19      C      0.590890000000     0.004840000000     0.006870000000     0.474859   
C20      C      0.417230000000     0.004740000000     0.997800000000     0.475243   
C21      C      0.498000000000     0.001350000000     0.415650000000     0.476793   
C22      C      0.502160000000     0.008940000000     0.589060000000     0.476508   
C23      C      0.413250000000     0.005980000000     0.504270000000     0.478822   
C24      C      0.586840000000     0.004260000000     0.500470000000     0.479048   
C25      C      0.502710000000     0.968630000000     0.664000000000    -0.015858   
C26      C      0.511920000000     0.050690000000     0.841580000000    -0.0162441  
C27      C      0.507370000000     0.967230000000     0.840420000000    -0.0162229  
C28      C      0.507600000000     0.985870000000     0.793160000000     0.0112297  
C29      C      0.510020000000     0.033460000000     0.793590000000     0.00996081 
C30      C      0.509820000000     0.059030000000     0.752670000000    -0.0649695  
C31      C      0.506200000000     0.052140000000     0.663560000000    -0.016386   
C32      C      0.505140000000     0.961130000000     0.752090000000    -0.0661047  
C33      C      0.507280000000     0.034180000000     0.711420000000     0.010125   
C34      C      0.505150000000     0.986570000000     0.711360000000     0.0110047  
C35      C      0.498060000000     0.958060000000     0.341130000000    -0.016414   
C36      C      0.494460000000     0.042690000000     0.164140000000    -0.0161754  
C37      C      0.499430000000     0.959260000000     0.163110000000    -0.0161348  
C38      C      0.497480000000     0.976530000000     0.211060000000     0.0101913  
C39      C      0.494870000000     0.024120000000     0.211450000000     0.0109668  
C40      C      0.493640000000     0.048930000000     0.252540000000    -0.0659414  
C41      C      0.494700000000     0.041570000000     0.340710000000    -0.0157815  
C42      C      0.498570000000     0.951050000000     0.252000000000    -0.0651164  
C43      C      0.494860000000     0.023550000000     0.293310000000     0.010713   
C44      C      0.497030000000     0.975940000000     0.293260000000     0.0104034  
C45      C      0.052080000000     0.506350000000     0.839930000000    -0.0163969  
C46      C      0.967150000000     0.507160000000     0.663070000000    -0.0161659  
C47      C      0.050610000000     0.511720000000     0.661900000000    -0.0162931  
C48      C      0.033390000000     0.509910000000     0.709890000000     0.0099574  
C49      C      0.985790000000     0.507480000000     0.710340000000     0.0112347  
C50      C      0.961060000000     0.505110000000     0.751410000000    -0.0661139  
C51      C      0.968570000000     0.502870000000     0.839500000000    -0.0158425  
C52      C      0.058960000000     0.509800000000     0.750810000000    -0.0649705  
C53      C      0.986500000000     0.505210000000     0.792140000000     0.0110271  
C54      C      0.034120000000     0.507350000000     0.792070000000     0.0101098  
C55      C      0.958000000000     0.498110000000     0.162360000000    -0.0164825  
C56      C      0.042600000000     0.494240000000     0.339350000000    -0.0162682  
C57      C      0.959170000000     0.499190000000     0.340380000000    -0.0160357  
C58      C      0.976450000000     0.497320000000     0.292430000000     0.0101687  
C59      C      0.024040000000     0.494720000000     0.292040000000     0.0109994  
C60      C      0.048860000000     0.493570000000     0.250960000000    -0.0659683  
C61      C      0.041520000000     0.494780000000     0.162790000000    -0.0158921  
C62      C      0.950970000000     0.498470000000     0.251490000000    -0.0651127  
C63      C      0.023490000000     0.494850000000     0.210180000000     0.0107224  
C64      C      0.975870000000     0.497010000000     0.210230000000     0.0104261  
C65      C      0.338610000000     0.041560000000     0.482510000000    -0.0163958  
C66      C      0.161240000000     0.976650000000     0.533880000000    -0.0166345  
C67      C      0.161440000000     0.032540000000     0.471780000000    -0.0165768  
C68      C      0.209020000000     0.022280000000     0.486950000000     0.011011   
C69      C      0.208940000000     0.988060000000     0.520070000000     0.0114188  
C70      C      0.249960000000     0.968200000000     0.535690000000    -0.0660027  
C71      C      0.338660000000     0.971070000000     0.527440000000    -0.0166205  
C72      C      0.250020000000     0.042960000000     0.472370000000    -0.065712   
C73      C      0.291000000000     0.986860000000     0.518740000000     0.0115375  
C74      C      0.290990000000     0.025180000000     0.490420000000     0.0110688  
C75      C      0.838520000000     0.979320000000     0.534540000000    -0.0165196  
C76      C      0.661510000000     0.036740000000     0.474270000000    -0.016622   
C77      C      0.661300000000     0.970610000000     0.525380000000    -0.0166345  
C78      C      0.708980000000     0.985880000000     0.515850000000     0.0115846  
C79      C      0.709120000000     0.021290000000     0.484010000000     0.0113518  
C80      C      0.750210000000     0.037540000000     0.464830000000    -0.0657293  
C81      C      0.838860000000     0.027840000000     0.466540000000    -0.016453   
C82      C      0.749880000000     0.969610000000     0.535390000000    -0.0659107  
C83      C      0.791130000000     0.018790000000     0.481990000000     0.0113117  
C84      C      0.790960000000     0.988320000000     0.518580000000     0.0115402  
C85      C      0.024110000000     0.843480000000     0.455980000000    -0.017248   
C86      C      0.968800000000     0.665240000000     0.516950000000    -0.0169186  
C87      C      0.037450000000     0.665450000000     0.469350000000    -0.0169915  
C88      C      0.019810000000     0.713110000000     0.475850000000     0.0102948  
C89      C      0.982560000000     0.712880000000     0.505510000000     0.0120788  
C90      C      0.963510000000     0.753740000000     0.522210000000    -0.0665289  
C91      C      0.970250000000     0.842170000000     0.519760000000    -0.0172853  
C92      C      0.036030000000     0.754350000000     0.456450000000    -0.0648292  
C93      C      0.981560000000     0.794870000000     0.505020000000     0.0122385  
C94      C      0.014700000000     0.795300000000     0.470850000000     0.0104343  
C95      C      0.037940000000     0.342060000000     0.532020000000    -0.0169888  
C96      C      0.969070000000     0.165400000000     0.483840000000    -0.0175143  
C97      C      0.024280000000     0.164190000000     0.546470000000    -0.0173756  
C98      C      0.014710000000     0.212320000000     0.531580000000     0.0105113  
C99      C      0.980790000000     0.212730000000     0.498180000000     0.0123214  
C100     C      0.962400000000     0.253860000000     0.481350000000    -0.0665721  
C101     C      0.967970000000     0.342380000000     0.486390000000    -0.016944   
C102     C      0.036540000000     0.253240000000     0.545290000000    -0.0649033  
C103     C      0.981960000000     0.294720000000     0.497480000000     0.0120779  
C104     C      0.019980000000     0.294450000000     0.526150000000     0.010346   
C105     C      0.165670000000     0.969170000000     0.019490000000    -0.0174883  
C106     C      0.342370000000     0.038040000000     0.971430000000    -0.017038   
C107     C      0.342650000000     0.968060000000     0.017050000000    -0.0169942  
C108     C      0.295000000000     0.982050000000     0.005930000000     0.011882   
C109     C      0.294750000000     0.020080000000     0.977270000000     0.0105609  
C110     C      0.253550000000     0.036650000000     0.958110000000    -0.0650212  
C111     C      0.164500000000     0.024390000000     0.956880000000    -0.0173565  
C112     C      0.254130000000     0.962500000000     0.022040000000    -0.0664809  
C113     C      0.212630000000     0.014830000000     0.971810000000     0.0107252  
C114     C      0.213010000000     0.980900000000     0.005200000000     0.0121045  
C115     C      0.843780000000     0.024330000000     0.047330000000    -0.0172567  
C116     C      0.665530000000     0.968930000000     0.986500000000    -0.0166928  
C117     C      0.665740000000     0.037560000000     0.034110000000    -0.0169181  
C118     C      0.713400000000     0.019960000000     0.027570000000     0.0101354  
C119     C      0.713170000000     0.982720000000     0.997900000000     0.0122078  
C120     C      0.754020000000     0.963690000000     0.981160000000    -0.0666151  
C121     C      0.842450000000     0.970490000000     0.983530000000    -0.0172774  
C122     C      0.754650000000     0.036200000000     0.046930000000    -0.0647489  
C123     C      0.795160000000     0.981770000000     0.998310000000     0.0123937  
C124     C      0.795600000000     0.014900000000     0.032490000000     0.0102956  
C125     C      0.970540000000     0.661490000000     0.978170000000    -0.0165757  
C126     C      0.028000000000     0.839040000000     0.036850000000    -0.0164731  
C127     C      0.979480000000     0.838700000000     0.968850000000    -0.0164255  
C128     C      0.988410000000     0.791140000000     0.984860000000     0.0117043  
C129     C      0.018870000000     0.791310000000     0.021460000000     0.0111388  
C130     C      0.037570000000     0.750380000000     0.038660000000    -0.0656608  
C131     C      0.036670000000     0.661680000000     0.029290000000    -0.0166112  
C132     C      0.969650000000     0.750070000000     0.968090000000    -0.0659647  
C133     C      0.021260000000     0.709290000000     0.019520000000     0.0111753  
C134     C      0.985850000000     0.709160000000     0.987670000000     0.0117556  
C135     C      0.971120000000     0.338820000000     0.976000000000    -0.0166474  
C136     C      0.032840000000     0.161630000000     0.031480000000    -0.0165295  
C137     C      0.976950000000     0.161400000000     0.969380000000    -0.016633   
C138     C      0.988290000000     0.209120000000     0.983230000000     0.0116523  
C139     C      0.022510000000     0.209200000000     0.016360000000     0.0107734  
C140     C      0.043130000000     0.250220000000     0.030980000000    -0.0655608  
C141     C      0.041610000000     0.338820000000     0.020930000000    -0.0164257  
C142     C      0.968380000000     0.250120000000     0.967660000000    -0.0661332  
C143     C      0.025290000000     0.291180000000     0.012980000000     0.0108447  
C144     C      0.986970000000     0.291170000000     0.984660000000     0.0117607  
H1       H      0.537530000000     0.944550000000     0.846460000000     0.0386328  
H2       H      0.544420000000     0.069680000000     0.848140000000     0.0395425  
H3       H      0.511430000000     0.096210000000     0.752930000000     0.041294   
H4       H      0.503170000000     0.923950000000     0.751840000000     0.0410442  
H5       H      0.532610000000     0.946100000000     0.656280000000     0.0395751  
H6       H      0.475760000000     0.074520000000     0.657830000000     0.0391501  
H7       H      0.475460000000     0.947340000000     0.847290000000     0.0401634  
H8       H      0.482440000000     0.073780000000     0.849210000000     0.0390795  
H9       H      0.537800000000     0.072050000000     0.655490000000     0.0390002  
H10      H      0.470580000000     0.948700000000     0.658440000000     0.0394922  
H11      H      0.469710000000     0.936520000000     0.155400000000     0.0386513  
H12      H      0.462130000000     0.061830000000     0.157120000000     0.0396378  
H13      H      0.492020000000     0.086120000000     0.252780000000     0.0410142  
H14      H      0.500690000000     0.913890000000     0.251760000000     0.0413097  
H15      H      0.467770000000     0.935890000000     0.348270000000     0.0391633  
H16      H      0.524890000000     0.064160000000     0.346960000000     0.0397885  
H17      H      0.531720000000     0.939860000000     0.156690000000     0.0399587  
H18      H      0.524110000000     0.066060000000     0.158170000000     0.0390158  
H19      H      0.462830000000     0.061470000000     0.347770000000     0.0391522  
H20      H      0.529860000000     0.937960000000     0.347790000000     0.0390663  
H21      H      0.073690000000     0.482220000000     0.654320000000     0.0390812  
H22      H      0.947270000000     0.475230000000     0.656270000000     0.0401281  
H23      H      0.923880000000     0.503150000000     0.751670000000     0.0410441  
H24      H      0.096140000000     0.511400000000     0.750540000000     0.041294   
H25      H      0.074470000000     0.475930000000     0.845710000000     0.0391604  
H26      H      0.946060000000     0.532790000000     0.847180000000     0.0395725  
H27      H      0.069600000000     0.544200000000     0.655280000000     0.0395547  
H28      H      0.944460000000     0.537300000000     0.656980000000     0.0386173  
H29      H      0.948630000000     0.470750000000     0.845130000000     0.0395055  
H30      H      0.071980000000     0.537970000000     0.847940000000     0.0390062  
H31      H      0.936440000000     0.469440000000     0.348050000000     0.0386239  
H32      H      0.061730000000     0.461900000000     0.346330000000     0.0396641  
H33      H      0.086050000000     0.491960000000     0.250720000000     0.0410218  
H34      H      0.913810000000     0.500580000000     0.251730000000     0.0413076  
H35      H      0.935840000000     0.467830000000     0.155160000000     0.039172   
H36      H      0.064090000000     0.525000000000     0.156590000000     0.0398089  
H37      H      0.939750000000     0.531470000000     0.346840000000     0.0399381  
H38      H      0.065960000000     0.523880000000     0.345380000000     0.0390543  
H39      H      0.061430000000     0.462940000000     0.155680000000     0.0391751  
H40      H      0.937890000000     0.529920000000     0.155750000000     0.0390665  
H41      H      0.156260000000     0.022450000000     0.435360000000     0.0415422  
H42      H      0.153950000000     0.939350000000     0.529790000000     0.0365459  
H43      H      0.249930000000     0.939770000000     0.559660000000     0.0418979  
H44      H      0.250040000000     0.071290000000     0.448280000000     0.0417189  
H45      H      0.346660000000     0.043910000000     0.445290000000     0.0364773  
H46      H      0.346180000000     0.969120000000     0.564780000000     0.0365797  
H47      H      0.153160000000     0.069650000000     0.475600000000     0.0364509  
H48      H      0.154800000000     0.986540000000     0.570160000000     0.041843   
H49      H      0.344770000000     0.936720000000     0.511870000000     0.0417581  
H50      H      0.344110000000     0.075830000000     0.498470000000     0.0413751  
H51      H      0.653370000000     0.971720000000     0.562680000000     0.0362096  
H52      H      0.655830000000     0.072360000000     0.486860000000     0.0417033  
H53      H      0.750340000000     0.063360000000     0.438070000000     0.0416391  
H54      H      0.749760000000     0.943860000000     0.562210000000     0.0415922  
H55      H      0.844060000000     0.993430000000     0.569550000000     0.0417665  
H56      H      0.844790000000     0.013710000000     0.431600000000     0.0418806  
H57      H      0.655520000000     0.935060000000     0.512630000000     0.0416139  
H58      H      0.653720000000     0.035510000000     0.436950000000     0.0362002  
H59      H      0.846710000000     0.065250000000     0.466240000000     0.0354653  
H60      H      0.846400000000     0.941920000000     0.534900000000     0.0354648  
H61      H      0.072550000000     0.661710000000     0.483940000000     0.0411005  
H62      H      0.968350000000     0.659480000000     0.554660000000     0.0370261  
H63      H      0.936300000000     0.753550000000     0.547570000000     0.0416039  
H64      H      0.063910000000     0.754590000000     0.431850000000     0.0417593  
H65      H      0.061320000000     0.851950000000     0.458170000000     0.0359977  
H66      H      0.932840000000     0.849230000000     0.516380000000     0.036075   
H67      H      0.038420000000     0.655780000000     0.432470000000     0.0367837  
H68      H      0.934150000000     0.657340000000     0.502930000000     0.0419424  
H69      H      0.980550000000     0.847890000000     0.556050000000     0.0430412  
H70      H      0.012230000000     0.849240000000     0.420200000000     0.0408695  
H71      H      0.013150000000     0.158640000000     0.582510000000     0.0409389  
H72      H      0.931730000000     0.158430000000     0.487990000000     0.0359795  
H73      H      0.934560000000     0.254050000000     0.456680000000     0.0417064  
H74      H      0.065010000000     0.252990000000     0.569210000000     0.0418794  
H75      H      0.040040000000     0.351810000000     0.568840000000     0.0367166  
H76      H      0.966430000000     0.348120000000     0.448710000000     0.0369401  
H77      H      0.061400000000     0.155590000000     0.543520000000     0.0358731  
H78      H      0.978630000000     0.159510000000     0.447370000000     0.0431553  
H79      H      0.933750000000     0.350370000000     0.501410000000     0.0419751  
H80      H      0.072610000000     0.345670000000     0.516400000000     0.0411322  
H81      H      0.350650000000     0.933850000000     0.002040000000     0.0419576  
H82      H      0.352140000000     0.040140000000     0.934620000000     0.0367391  
H83      H      0.253320000000     0.065120000000     0.934190000000     0.0419217  
H84      H      0.254310000000     0.934660000000     0.046700000000     0.0416856  
H85      H      0.158710000000     0.931830000000     0.015330000000     0.0359411  
H86      H      0.155890000000     0.061510000000     0.959820000000     0.0358875  
H87      H      0.348360000000     0.966520000000     0.054740000000     0.0369315  
H88      H      0.345960000000     0.072710000000     0.987050000000     0.0411736  
H89      H      0.158990000000     0.013260000000     0.920820000000     0.0409277  
H90      H      0.159750000000     0.978720000000     0.055960000000     0.0431434  
H91      H      0.661960000000     0.072670000000     0.019540000000     0.0410602  
H92      H      0.659730000000     0.968470000000     0.948800000000     0.0369998  
H93      H      0.753830000000     0.936500000000     0.955790000000     0.0416519  
H94      H      0.754890000000     0.064070000000     0.071540000000     0.0417329  
H95      H      0.852220000000     0.061540000000     0.045150000000     0.0359977  
H96      H      0.849540000000     0.933090000000     0.986880000000     0.036115   
H97      H      0.656100000000     0.038520000000     0.071000000000     0.0367595  
H98      H      0.657660000000     0.934260000000     0.000520000000     0.0418038  
H99      H      0.848140000000     0.980820000000     0.947240000000     0.0430441  
H100     H      0.849570000000     0.012440000000     0.083100000000     0.0408815  
H101     H      0.942090000000     0.846640000000     0.968480000000     0.0354715  
H102     H      0.013880000000     0.845030000000     0.071780000000     0.0418792  
H103     H      0.063390000000     0.750500000000     0.065410000000     0.0416236  
H104     H      0.943900000000     0.749950000000     0.941260000000     0.0416045  
H105     H      0.934990000000     0.655750000000     0.990940000000     0.0416252  
H106     H      0.072290000000     0.655960000000     0.016700000000     0.0416964  
H107     H      0.993610000000     0.844170000000     0.933840000000     0.0417655  
H108     H      0.065420000000     0.846820000000     0.037140000000     0.0354535  
H109     H      0.035420000000     0.653900000000     0.066610000000     0.0361967  
H110     H      0.971640000000     0.653540000000     0.940870000000     0.0362115  
H111     H      0.986870000000     0.155020000000     0.933100000000     0.0418636  
H112     H      0.069960000000     0.153410000000     0.027650000000     0.036421   
H113     H      0.071460000000     0.250260000000     0.055080000000     0.0416592  
H114     H      0.939950000000     0.250080000000     0.943690000000     0.0419441  
H115     H      0.969160000000     0.346370000000     0.938660000000     0.0365942  
H116     H      0.043940000000     0.346840000000     0.058160000000     0.0364619  
H117     H      0.939670000000     0.154070000000     0.973450000000     0.0365998  
H118     H      0.022760000000     0.156410000000     0.067900000000     0.0415376  
H119     H      0.075880000000     0.344370000000     0.004990000000     0.0413534  
H120     H      0.936770000000     0.344870000000     0.991580000000     0.0417837  
N1       N      0.503450000000     0.010250000000     0.635660000000    -0.18138    
N2       N      0.509710000000     0.008500000000     0.869130000000    -0.181164   
N3       N      0.496830000000     0.000000000000     0.369060000000    -0.181497   
N4       N      0.497680000000     0.001430000000     0.135510000000    -0.181289   
N5       N      0.010190000000     0.503640000000     0.867840000000    -0.181445   
N6       N      0.008410000000     0.509460000000     0.634360000000    -0.181178   
N7       N      0.999950000000     0.496940000000     0.134440000000    -0.181329   
N8       N      0.001330000000     0.497420000000     0.367980000000    -0.181268   
N9       N      0.366690000000     0.006410000000     0.505080000000    -0.181791   
N10      N      0.133300000000     0.004270000000     0.502450000000    -0.181762   
N11      N      0.866710000000     0.003600000000     0.500690000000    -0.181491   
N12      N      0.633380000000     0.003760000000     0.499810000000    -0.181795   
N13      N      0.997010000000     0.870990000000     0.488360000000    -0.180462   
N14      N      0.004210000000     0.637240000000     0.494720000000    -0.180615   
N15      N      0.004060000000     0.370310000000     0.507580000000    -0.180633   
N16      N      0.996390000000     0.136630000000     0.514820000000    -0.180422   
N17      N      0.136930000000     0.996490000000     0.988500000000    -0.180353   
N18      N      0.370600000000     0.004160000000     0.995890000000    -0.180619   
N19      N      0.871280000000     0.997250000000     0.014920000000    -0.180429   
N20      N      0.637530000000     0.004310000000     0.008760000000    -0.180676   
N21      N      0.003670000000     0.633560000000     0.003750000000    -0.181847   
N22      N      0.003800000000     0.866890000000     0.002660000000    -0.181572   
N23      N      0.006420000000     0.366880000000     0.998380000000    -0.181761   
N24      N      0.004600000000     0.133470000000     0.000790000000    -0.181822   
O1       O      0.013150000000     0.065490000000     0.038630000000    -0.557057   
O2       O      0.005730000000     0.935290000000     0.040560000000    -0.556581   
O3       O      0.072880000000     0.995440000000     0.032990000000    -0.557949   
O4       O      0.943150000000     0.005000000000     0.046280000000    -0.550196   
O5       O      0.935380000000     0.995400000000     0.970560000000    -0.558545   
O6       O      0.065090000000     0.004130000000     0.957160000000    -0.551147   
O7       O      0.002200000000     0.934780000000     0.963840000000    -0.556992   
O8       O      0.995460000000     0.065030000000     0.963970000000    -0.55716    
O9       O      0.995280000000     0.072590000000     0.470320000000    -0.557847   
O10      O      0.004770000000     0.942860000000     0.457010000000    -0.550285   
O11      O      0.935090000000     0.005480000000     0.462760000000    -0.556487   
O12      O      0.065300000000     0.012830000000     0.464640000000    -0.557066   
O13      O      0.064860000000     0.995130000000     0.539290000000    -0.557462   
O14      O      0.934620000000     0.001940000000     0.539490000000    -0.557043   
O15      O      0.995200000000     0.935080000000     0.532730000000    -0.558664   
O16      O      0.004000000000     0.064790000000     0.546150000000    -0.551066   
O17      O      0.040580000000     0.498560000000     0.067920000000    -0.560923   
O18      O      0.046420000000     0.502600000000     0.937810000000    -0.553575   
O19      O      0.042710000000     0.565760000000     0.006170000000    -0.55823    
O20      O      0.044130000000     0.435370000000     0.002330000000    -0.558399   
O21      O      0.967390000000     0.434720000000     0.996980000000    -0.558929   
O22      O      0.966120000000     0.565100000000     0.999070000000    -0.558892   
O23      O      0.969620000000     0.500990000000     0.934350000000    -0.561189   
O24      O      0.963760000000     0.498820000000     0.064480000000    -0.554176   
O25      O      0.964690000000     0.503760000000     0.437000000000    -0.556974   
O26      O      0.968500000000     0.503880000000     0.567200000000    -0.558007   
O27      O      0.966780000000     0.569010000000     0.502900000000    -0.558562   
O28      O      0.966490000000     0.438660000000     0.501300000000    -0.558267   
O29      O      0.043100000000     0.438580000000     0.507690000000    -0.550219   
O30      O      0.042970000000     0.568830000000     0.492720000000    -0.550272   
O31      O      0.045100000000     0.510120000000     0.565030000000    -0.553557   
O32      O      0.041280000000     0.497230000000     0.435390000000    -0.554719   
O33      O      0.504050000000     0.964790000000     0.066500000000    -0.556981   
O34      O      0.504160000000     0.968590000000     0.936290000000    -0.557889   
O35      O      0.569300000000     0.966880000000     0.000590000000    -0.558403   
O36      O      0.438950000000     0.966590000000     0.002190000000    -0.558514   
O37      O      0.438860000000     0.043190000000     0.995800000000    -0.550323   
O38      O      0.569110000000     0.043070000000     0.010770000000    -0.550186   
O39      O      0.510400000000     0.045190000000     0.938460000000    -0.553458   
O40      O      0.497510000000     0.041370000000     0.068100000000    -0.554747   
O41      O      0.498680000000     0.963810000000     0.439010000000    -0.554104   
O42      O      0.500800000000     0.969670000000     0.569150000000    -0.561192   
O43      O      0.434550000000     0.967410000000     0.506490000000    -0.558907   
O44      O      0.564920000000     0.966190000000     0.504460000000    -0.558982   
O45      O      0.565570000000     0.042780000000     0.497350000000    -0.558166   
O46      O      0.435170000000     0.044150000000     0.501150000000    -0.558241   
O47      O      0.502380000000     0.046470000000     0.565680000000    -0.553778   
O48      O      0.498380000000     0.040620000000     0.435580000000    -0.561137   
V1       V      0.008820000000     0.000440000000     0.042830000000     1.3894     
V2       V      0.999440000000     0.999910000000     0.960670000000     1.39249    
V3       V      0.000240000000     0.008530000000     0.460460000000     1.38953    
V4       V      0.999750000000     0.999140000000     0.542630000000     1.39257    
V5       V      0.046570000000     0.500610000000     0.003460000000     1.39538    
V6       V      0.963620000000     0.499870000000     0.998830000000     1.39828    
V7       V      0.963480000000     0.503850000000     0.502200000000     1.40063    
V8       V      0.046320000000     0.503690000000     0.500100000000     1.37677    
V9       V      0.504130000000     0.963580000000     0.001290000000     1.40026    
V10      V      0.503970000000     0.046410000000     0.003390000000     1.37654    
V11      V      0.499700000000     0.963670000000     0.504670000000     1.3979     
V12      V      0.500410000000     0.046610000000     0.500040000000     1.39567    


