data_structure

_audit_creation_method RASPA-1.0
_audit_creation_date 2023-5-19
_audit_author_name 'Poobodin Mano'

_cell_length_a    29.6967
_cell_length_b    29.5021
_cell_length_c    29.5001
_cell_angle_alpha 90
_cell_angle_beta  89.9998
_cell_angle_gamma 90
_cell_volume      25845.5

_symmetry_cell_setting          triclinic
_symmetry_space_group_name_Hall 'P 1'
_symmetry_space_group_name_H-M  'P 1'
_symmetry_Int_Tables_number     1

_symmetry_equiv_pos_as_xyz 'x,y,z'

loop_
_atom_site_label
_atom_site_type_symbol
_atom_site_fract_x
_atom_site_fract_y
_atom_site_fract_z
_atom_site_charge
C1       C      0.020280000000     0.083300000000     0.494040000000     0.472098   
C2       C      0.018680000000     0.911730000000     0.497380000000     0.472356   
C3       C      0.933690000000     0.999420000000     0.494330000000     0.474153   
C4       C      0.103880000000     0.997720000000     0.497440000000     0.473325   
C5       C      0.994770000000     0.412580000000     0.508560000000     0.473429   
C6       C      0.993260000000     0.582140000000     0.481320000000     0.472925   
C7       C      0.991570000000     0.483020000000     0.410300000000     0.474225   
C8       C      0.996620000000     0.511610000000     0.579450000000     0.473545   
C9       C      0.521700000000     0.987880000000     0.597660000000     0.471992   
C10      C      0.516390000000     0.992080000000     0.426170000000     0.472001   
C11      C      0.603420000000     0.991670000000     0.509740000000     0.473031   
C12      C      0.433280000000     0.988000000000     0.515010000000     0.474135   
C13      C      0.491390000000     0.087460000000     0.023360000000     0.473988   
C14      C      0.496960000000     0.918120000000     0.995900000000     0.473676   
C15      C      0.494590000000     0.989450000000     0.094660000000     0.472803   
C16      C      0.493640000000     0.015490000000     0.924870000000     0.473038   
C17      C      0.982240000000     0.517180000000     0.911270000000     0.473127   
C18      C      0.965460000000     0.502250000000     0.081250000000     0.473146   
C19      C      0.888300000000     0.510200000000     0.987410000000     0.471458   
C20      C      0.058160000000     0.508640000000     0.004570000000     0.470832   
C21      C      0.465660000000     0.416560000000     0.001310000000     0.472705   
C22      C      0.482970000000     0.586530000000     0.986650000000     0.473134   
C23      C      0.558600000000     0.493150000000     0.994760000000     0.471368   
C24      C      0.388770000000     0.510640000000     0.993450000000     0.471464   
C25      C      0.771450000000     0.476010000000     0.952130000000     0.00841269 
C26      C      0.701610000000     0.442090000000     0.925770000000    -0.0437086  
C27      C      0.626240000000     0.463450000000     0.957860000000    -0.0186104  
C28      C      0.677090000000     0.466110000000     0.958530000000     0.0082631  
C29      C      0.629900000000     0.500320000000     0.036320000000    -0.0170254  
C30      C      0.676930000000     0.515490000000     0.024730000000     0.00917068 
C31      C      0.748370000000     0.446130000000     0.923360000000    -0.0438463  
C32      C      0.700110000000     0.494520000000     0.989000000000    -0.00540961 
C33      C      0.699570000000     0.546800000000     0.052370000000    -0.0432931  
C34      C      0.744580000000     0.557750000000     0.043910000000    -0.0434285  
C35      C      0.816040000000     0.549360000000     0.998170000000    -0.0169708  
C36      C      0.768740000000     0.535040000000     0.009900000000     0.00933243 
C37      C      0.822280000000     0.477440000000     0.950320000000    -0.0185323  
C38      C      0.747000000000     0.501950000000     0.983640000000    -0.00555952 
C39      C      0.176680000000     0.476600000000     0.984580000000     0.00913622 
C40      C      0.244810000000     0.456020000000     0.943830000000    -0.0435029  
C41      C      0.316810000000     0.500540000000     0.953750000000    -0.0172468  
C42      C      0.269140000000     0.489480000000     0.967170000000     0.00946489 
C43      C      0.322600000000     0.546860000000     0.027000000000    -0.0190407  
C44      C      0.271690000000     0.547210000000     0.026140000000     0.00829502 
C45      C      0.199390000000     0.448550000000     0.953680000000    -0.0432184  
C46      C      0.247170000000     0.516250000000     0.999650000000    -0.00563238 
C47      C      0.248470000000     0.576760000000     0.055150000000    -0.0438994  
C48      C      0.201530000000     0.575700000000     0.057640000000    -0.0436338  
C49      C      0.125990000000     0.545480000000     0.033990000000    -0.0185947  
C50      C      0.176890000000     0.543370000000     0.033160000000     0.00815109 
C51      C      0.128940000000     0.466300000000     0.998280000000    -0.0166079  
C52      C      0.199990000000     0.512090000000     0.005750000000    -0.00564497 
C53      C      0.533890000000     0.798940000000     0.002620000000     0.00876586 
C54      C      0.558830000000     0.727220000000     0.034110000000    -0.043673   
C55      C      0.518770000000     0.654210000000     0.017050000000    -0.0179596  
C56      C      0.526370000000     0.704010000000     0.008520000000     0.00827884 
C57      C      0.475960000000     0.655670000000     0.941100000000    -0.0168416  
C58      C      0.469260000000     0.705580000000     0.949420000000     0.00928641 
C59      C      0.563640000000     0.774090000000     0.029950000000    -0.0432688  
C60      C      0.498210000000     0.728450000000     0.979160000000    -0.00581697 
C61      C      0.438630000000     0.730520000000     0.923150000000    -0.0435762  
C62      C      0.436330000000     0.777670000000     0.927260000000    -0.0434912  
C63      C      0.461520000000     0.851590000000     0.961600000000    -0.0181445  
C64      C      0.466880000000     0.801030000000     0.955060000000     0.00805867 
C65      C      0.541600000000     0.848540000000     0.994360000000    -0.0161078  
C66      C      0.499510000000     0.776390000000     0.979160000000    -0.00530677 
C67      C      0.451070000000     0.204200000000     0.054530000000     0.0083185  
C68      C      0.413520000000     0.274650000000     0.074820000000    -0.0438881  
C69      C      0.437610000000     0.350080000000     0.042700000000    -0.0189186  
C70      C      0.440220000000     0.298780000000     0.043860000000     0.00850166 
C71      C      0.478720000000     0.342540000000     0.966560000000    -0.0166686  
C72      C      0.495320000000     0.297340000000     0.982810000000     0.00959639 
C73      C      0.417920000000     0.227640000000     0.079030000000    -0.0436296  
C74      C      0.471880000000     0.275130000000     0.017500000000    -0.0060016  
C75      C      0.530150000000     0.274750000000     0.959930000000    -0.0434381  
C76      C      0.541860000000     0.230550000000     0.972070000000    -0.0432544  
C77      C      0.530310000000     0.160620000000     0.020090000000    -0.0168695  
C78      C      0.516400000000     0.207010000000     0.004500000000     0.00956835 
C79      C      0.453180000000     0.152990000000     0.057330000000    -0.018405   
C80      C      0.479890000000     0.228580000000     0.025620000000    -0.00537195 
C81      C      0.550000000000     0.024890000000     0.715260000000     0.00898669 
C82      C      0.568490000000     0.064820000000     0.784750000000    -0.0440134  
C83      C      0.528880000000     0.049910000000     0.858180000000    -0.0192649  
C84      C      0.534190000000     0.041880000000     0.807930000000     0.00917012 
C85      C      0.454640000000     0.007330000000     0.851670000000    -0.0169946  
C86      C      0.469790000000     0.990440000000     0.805880000000     0.00945315 
C87      C      0.575750000000     0.057030000000     0.738750000000    -0.0438312  
C88      C      0.506770000000     0.010890000000     0.784310000000    -0.00541972 
C89      C      0.445000000000     0.957100000000     0.782850000000    -0.0432466  
C90      C      0.457370000000     0.943610000000     0.739150000000    -0.0433978  
C91      C      0.507950000000     0.949090000000     0.670310000000    -0.0169997  
C92      C      0.492850000000     0.965340000000     0.716430000000     0.00969726 
C93      C      0.557540000000     0.019150000000     0.665070000000    -0.0186389  
C94      C      0.516630000000     0.000210000000     0.738470000000    -0.00534167 
C95      C      0.543500000000     0.961130000000     0.305720000000     0.0083682  
C96      C      0.567030000000     0.930410000000     0.233120000000    -0.0438992  
C97      C      0.532360000000     0.955070000000     0.159660000000    -0.0189579  
C98      C      0.533630000000     0.955510000000     0.210820000000     0.00870902 
C99      C      0.454830000000     0.991900000000     0.167670000000    -0.0169852  
C100     C      0.467830000000     0.004720000000     0.215360000000     0.00959014 
C101     C      0.571150000000     0.932310000000     0.280160000000    -0.0436624  
C102     C      0.504200000000     0.982790000000     0.236350000000    -0.00557682 
C103     C      0.441260000000     0.034930000000     0.240590000000    -0.0431823  
C104     C      0.451500000000     0.043950000000     0.285970000000    -0.0433112  
C105     C      0.500240000000     0.032910000000     0.355410000000    -0.0170627  
C106     C      0.486270000000     0.020310000000     0.307900000000     0.00989039 
C107     C      0.546910000000     0.959920000000     0.356720000000    -0.0181176  
C108     C      0.511350000000     0.988150000000     0.283560000000    -0.00560517 
C109     C      0.968470000000     0.555680000000     0.792400000000     0.00898183 
C110     C      0.935480000000     0.578510000000     0.720550000000    -0.0436211  
C111     C      0.960850000000     0.545090000000     0.646260000000    -0.0182871  
C112     C      0.966080000000     0.550990000000     0.696920000000     0.00822602 
C113     C      0.040990000000     0.512480000000     0.649260000000    -0.0165923  
C114     C      0.032750000000     0.502980000000     0.698560000000     0.00924178 
C115     C      0.937700000000     0.582060000000     0.767750000000    -0.0434153  
C116     C      0.998550000000     0.526450000000     0.721350000000    -0.00568613 
C117     C      0.062570000000     0.475540000000     0.723200000000    -0.0434878  
C118     C      0.057600000000     0.470760000000     0.770010000000    -0.0435964  
C119     C      0.017140000000     0.486840000000     0.843050000000    -0.0177164  
C120     C      0.025100000000     0.496110000000     0.793430000000     0.00824632 
C121     C      0.974720000000     0.563100000000     0.842510000000    -0.0166717  
C122     C      0.997160000000     0.525900000000     0.769280000000    -0.00577269 
C123     C      0.951560000000     0.450190000000     0.293960000000     0.00840338 
C124     C      0.913970000000     0.429290000000     0.223710000000    -0.0437887  
C125     C      0.938000000000     0.460840000000     0.147990000000    -0.0187746  
C126     C      0.940640000000     0.460060000000     0.199300000000     0.00838963 
C127     C      0.978900000000     0.537160000000     0.155060000000    -0.0166264  
C128     C      0.995700000000     0.521150000000     0.200240000000     0.00935478 
C129     C      0.918410000000     0.425470000000     0.270750000000    -0.0437129  
C130     C      0.972330000000     0.486600000000     0.222710000000    -0.00579066 
C131     C      0.030580000000     0.544200000000     0.222580000000    -0.0432416  
C132     C      0.042350000000     0.532410000000     0.266840000000    -0.0434272  
C133     C      0.030740000000     0.485120000000     0.337240000000    -0.0166927  
C134     C      0.016910000000     0.500190000000     0.290670000000     0.00978873 
C135     C      0.953690000000     0.447880000000     0.345190000000    -0.0184004  
C136     C      0.980390000000     0.478860000000     0.269310000000    -0.00550875 
C137     C      0.220490000000     0.025840000000     0.537260000000     0.00775423 
C138     C      0.290070000000     0.048460000000     0.574000000000    -0.0442091  
C139     C      0.365460000000     0.020680000000     0.547940000000    -0.0188279  
C140     C      0.314750000000     0.019440000000     0.545750000000     0.00890618 
C141     C      0.362530000000     0.947220000000     0.501720000000    -0.0169312  
C142     C      0.315390000000     0.960150000000     0.488220000000     0.00997614 
C143     C      0.243310000000     0.050710000000     0.570600000000    -0.0434352  
C144     C      0.291970000000     0.992630000000     0.513720000000    -0.0061243  
C145     C      0.292930000000     0.936610000000     0.453590000000    -0.0435645  
C146     C      0.247850000000     0.946110000000     0.443870000000    -0.0430138  
C147     C      0.176280000000     0.990170000000     0.458170000000    -0.0163377  
C148     C      0.223510000000     0.976650000000     0.470900000000     0.00901618 
C149     C      0.169770000000     0.026790000000     0.536600000000    -0.0173413  
C150     C      0.245090000000     0.998410000000     0.507210000000    -0.0051098  
C151     C      0.814530000000     0.976810000000     0.466540000000     0.00960933 
C152     C      0.745280000000     0.934950000000     0.453380000000    -0.0431385  
C153     C      0.674990000000     0.951860000000     0.498550000000    -0.0164543  
C154     C      0.722140000000     0.963280000000     0.483700000000     0.00876352 
C155     C      0.671160000000     0.032730000000     0.531260000000    -0.0173118  
C156     C      0.721830000000     0.030110000000     0.532060000000     0.00757886 
C157     C      0.790680000000     0.942750000000     0.443590000000    -0.0434231  
C158     C      0.745190000000     0.998920000000     0.504870000000    -0.00549062 
C159     C      0.746010000000     0.062700000000     0.556630000000    -0.043448   
C160     C      0.792900000000     0.063900000000     0.554590000000    -0.0441674  
C161     C      0.867090000000     0.034140000000     0.527260000000    -0.018744   
C162     C      0.816370000000     0.034410000000     0.525770000000     0.00866916 
C163     C      0.862450000000     0.987670000000     0.453940000000    -0.0167327  
C164     C      0.792280000000     0.003360000000     0.499030000000    -0.00582498 
C165     C      0.032430000000     0.698790000000     0.450760000000     0.00870008 
C166     C      0.072350000000     0.768100000000     0.432080000000    -0.0439639  
C167     C      0.051430000000     0.843360000000     0.465050000000    -0.0192905  
C168     C      0.045800000000     0.792630000000     0.462770000000     0.00904621 
C169     C      0.003580000000     0.839810000000     0.536890000000    -0.0170893  
C170     C      0.988810000000     0.793070000000     0.522310000000     0.0100135  
C171     C      0.066370000000     0.721550000000     0.426850000000    -0.0436979  
C172     C      0.013010000000     0.769900000000     0.488570000000    -0.00565419 
C173     C      0.953750000000     0.770720000000     0.545100000000    -0.0432974  
C174     C      0.942300000000     0.726170000000     0.533760000000    -0.0430629  
C175     C      0.953560000000     0.655150000000     0.487060000000    -0.0169687  
C176     C      0.967720000000     0.702020000000     0.501710000000     0.0093982  
C177     C      0.028480000000     0.648050000000     0.445660000000    -0.0183109  
C178     C      0.004290000000     0.723340000000     0.480300000000    -0.00513848 
C179     C      0.969400000000     0.292450000000     0.490000000000     0.00925781 
C180     C      0.955440000000     0.223830000000     0.446550000000    -0.0434948  
C181     C      0.005820000000     0.155100000000     0.454350000000    -0.0169629  
C182     C      0.990830000000     0.201680000000     0.469010000000     0.00962499 
C183     C      0.053370000000     0.151510000000     0.526430000000    -0.0189599  
C184     C      0.048300000000     0.202360000000     0.528070000000     0.00857601 
C185     C      0.943850000000     0.268300000000     0.458080000000    -0.043119   
C186     C      0.015280000000     0.224960000000     0.502460000000    -0.00560276 
C187     C      0.075320000000     0.227120000000     0.558150000000    -0.0439225  
C188     C      0.069650000000     0.273800000000     0.562810000000    -0.0439548  
C189     C      0.032070000000     0.347290000000     0.543130000000    -0.0190457  
C190     C      0.035400000000     0.296380000000     0.539160000000     0.00881074 
C191     C      0.955560000000     0.339360000000     0.504650000000    -0.0166048  
C192     C      0.006640000000     0.271510000000     0.510540000000    -0.00536657 
H1       H      0.612600000000     0.528020000000     0.055160000000     0.0412719  
H2       H      0.832840000000     0.485450000000     0.915040000000     0.0362399  
H3       H      0.616060000000     0.427220000000     0.959980000000     0.0358742  
H4       H      0.832130000000     0.564330000000     0.028820000000     0.041854   
H5       H      0.766670000000     0.426120000000     0.898670000000     0.035185   
H6       H      0.684450000000     0.419940000000     0.902120000000     0.0346273  
H7       H      0.614650000000     0.477060000000     0.924680000000     0.0452123  
H8       H      0.834840000000     0.442710000000     0.957840000000     0.0455107  
H9       H      0.682230000000     0.563180000000     0.080220000000     0.0349332  
H10      H      0.631780000000     0.470130000000     0.058780000000     0.0400966  
H11      H      0.760750000000     0.583520000000     0.064380000000     0.0354091  
H12      H      0.814710000000     0.575810000000     0.971380000000     0.0392384  
H13      H      0.333290000000     0.536320000000     0.061570000000     0.0455524  
H14      H      0.129660000000     0.444120000000     0.028730000000     0.0402274  
H15      H      0.316300000000     0.527440000000     0.927370000000     0.0395248  
H16      H      0.115730000000     0.578430000000     0.018850000000     0.0450077  
H17      H      0.181840000000     0.421120000000     0.936850000000     0.0349415  
H18      H      0.261140000000     0.435280000000     0.918380000000     0.0354088  
H19      H      0.332660000000     0.469710000000     0.938910000000     0.041999   
H20      H      0.112010000000     0.447170000000     0.970550000000     0.0411269  
H21      H      0.266810000000     0.600960000000     0.075700000000     0.0353152  
H22      H      0.334910000000     0.581970000000     0.021010000000     0.0370288  
H23      H      0.184320000000     0.600000000000     0.079060000000     0.0346415  
H24      H      0.114550000000     0.544880000000     0.069890000000     0.0360883  
H25      H      0.502200000000     0.651200000000     0.914610000000     0.0408936  
H26      H      0.562950000000     0.852330000000     0.963640000000     0.0405278  
H27      H      0.502830000000     0.650670000000     0.050990000000     0.0448087  
H28      H      0.429300000000     0.857450000000     0.979930000000     0.0448078  
H29      H      0.590350000000     0.791020000000     0.048340000000     0.0348524  
H30      H      0.580800000000     0.708890000000     0.057000000000     0.0350446  
H31      H      0.552050000000     0.636850000000     0.017980000000     0.0372808  
H32      H      0.560420000000     0.863230000000     0.023540000000     0.0410543  
H33      H      0.416290000000     0.713470000000     0.899670000000     0.0355981  
H34      H      0.443910000000     0.640820000000     0.928300000000     0.0405038  
H35      H      0.411110000000     0.796090000000     0.908180000000     0.0350843  
H36      H      0.459040000000     0.867930000000     0.927690000000     0.0366549  
H37      H      0.450480000000     0.337230000000     0.942410000000     0.0398428  
H38      H      0.420200000000     0.139450000000     0.045640000000     0.044935   
H39      H      0.450980000000     0.363100000000     0.075420000000     0.0450645  
H40      H      0.551530000000     0.163790000000     0.050960000000     0.0396841  
H41      H      0.395710000000     0.209510000000     0.101840000000     0.0349967  
H42      H      0.388940000000     0.292230000000     0.095470000000     0.0356147  
H43      H      0.401670000000     0.360330000000     0.039900000000     0.0370248  
H44      H      0.456910000000     0.142900000000     0.093450000000     0.0353804  
H45      H      0.548500000000     0.291450000000     0.932950000000     0.0349271  
H46      H      0.506580000000     0.359930000000     0.948180000000     0.0416575  
H47      H      0.570150000000     0.214390000000     0.955460000000     0.0349564  
H48      H      0.550810000000     0.144300000000     0.993010000000     0.04189    
H49      H      0.435640000000     0.979880000000     0.869150000000     0.0413067  
H50      H      0.592550000000     0.007000000000     0.659500000000     0.0342715  
H51      H      0.520160000000     0.086120000000     0.863840000000     0.0354426  
H52      H      0.478900000000     0.933290000000     0.652390000000     0.0405745  
H53      H      0.601780000000     0.076020000000     0.721360000000     0.0344277  
H54      H      0.589590000000     0.089060000000     0.802360000000     0.0345698  
H55      H      0.562070000000     0.043300000000     0.874380000000     0.0458239  
H56      H      0.555280000000     0.053260000000     0.649100000000     0.0450923  
H57      H      0.416330000000     0.941090000000     0.798930000000     0.0351238  
H58      H      0.431710000000     0.036730000000     0.847020000000     0.0390432  
H59      H      0.438770000000     0.916610000000     0.722770000000     0.0356816  
H60      H      0.534630000000     0.923020000000     0.674540000000     0.0391885  
H61      H      0.435390000000     0.020260000000     0.152230000000     0.0410413  
H62      H      0.582630000000     0.965720000000     0.366550000000     0.0359961  
H63      H      0.529050000000     0.919390000000     0.147940000000     0.0358737  
H64      H      0.470660000000     0.047120000000     0.373760000000     0.0417006  
H65      H      0.596250000000     0.911430000000     0.296740000000     0.0347761  
H66      H      0.589820000000     0.909050000000     0.213980000000     0.0347786  
H67      H      0.565190000000     0.968470000000     0.147360000000     0.0456805  
H68      H      0.538160000000     0.924990000000     0.367880000000     0.0451813  
H69      H      0.412970000000     0.052050000000     0.224970000000     0.0353127  
H70      H      0.432840000000     0.961430000000     0.168690000000     0.0397898  
H71      H      0.431910000000     0.069020000000     0.304150000000     0.0361141  
H72      H      0.526710000000     0.059490000000     0.353680000000     0.0404388  
H73      H      0.059410000000     0.483230000000     0.634200000000     0.0413948  
H74      H      0.942840000000     0.576200000000     0.857450000000     0.0402566  
H75      H      0.958240000000     0.579180000000     0.630340000000     0.0367148  
H76      H      0.050330000000     0.484960000000     0.860510000000     0.037428   
H77      H      0.915280000000     0.605280000000     0.785050000000     0.0355375  
H78      H      0.910280000000     0.597800000000     0.702310000000     0.0351289  
H79      H      0.928750000000     0.526670000000     0.640090000000     0.0447996  
H80      H      0.001020000000     0.589470000000     0.847350000000     0.0410744  
H81      H      0.089400000000     0.457430000000     0.706130000000     0.0348705  
H82      H      0.062550000000     0.543120000000     0.646150000000     0.0405626  
H83      H      0.079480000000     0.447620000000     0.788120000000     0.0350437  
H84      H      0.000550000000     0.453160000000     0.845960000000     0.0445603  
H85      H      0.006670000000     0.555500000000     0.137490000000     0.0417711  
H86      H      0.957680000000     0.411880000000     0.355620000000     0.0353498  
H87      H      0.902030000000     0.463290000000     0.137740000000     0.037127   
H88      H      0.051290000000     0.512350000000     0.353270000000     0.0418679  
H89      H      0.896210000000     0.402830000000     0.289090000000     0.0349948  
H90      H      0.889380000000     0.408490000000     0.206310000000     0.035596   
H91      H      0.951630000000     0.428160000000     0.135170000000     0.0449454  
H92      H      0.920630000000     0.459460000000     0.358630000000     0.0449502  
H93      H      0.048870000000     0.571080000000     0.205650000000     0.0348996  
H94      H      0.950660000000     0.561310000000     0.160400000000     0.0399052  
H95      H      0.070640000000     0.549170000000     0.282850000000     0.0349996  
H96      H      0.051890000000     0.454160000000     0.334470000000     0.0396286  
H97      H      0.380060000000     0.932240000000     0.471880000000     0.0421952  
H98      H      0.158450000000     0.062720000000     0.534960000000     0.0341361  
H99      H      0.376090000000     0.014580000000     0.583590000000     0.0369128  
H100     H      0.160120000000     0.961860000000     0.439210000000     0.0399665  
H101     H      0.224820000000     0.072220000000     0.593840000000     0.034375   
H102     H      0.307110000000     0.069250000000     0.598950000000     0.0354891  
H103     H      0.376380000000     0.055390000000     0.538090000000     0.045991   
H104     H      0.157760000000     0.013020000000     0.569560000000     0.0448369  
H105     H      0.310460000000     0.911300000000     0.433700000000     0.0360155  
H106     H      0.360950000000     0.921150000000     0.528880000000     0.0396863  
H107     H      0.231770000000     0.929150000000     0.415610000000     0.0350897  
H108     H      0.177690000000     0.020310000000     0.435610000000     0.040052   
H109     H      0.661580000000     0.063720000000     0.512070000000     0.0445193  
H110     H      0.862200000000     0.014760000000     0.427740000000     0.0398105  
H111     H      0.676750000000     0.929150000000     0.528560000000     0.0406319  
H112     H      0.877340000000     0.023650000000     0.561980000000     0.0460481  
H113     H      0.807370000000     0.921760000000     0.418580000000     0.0359402  
H114     H      0.728100000000     0.906990000000     0.437020000000     0.0350382  
H115     H      0.657630000000     0.933350000000     0.470670000000     0.0399345  
H116     H      0.878680000000     0.957170000000     0.438840000000     0.0415955  
H117     H      0.728490000000     0.087100000000     0.577660000000     0.0344779  
H118     H      0.658830000000     0.036460000000     0.566710000000     0.0356347  
H119     H      0.810980000000     0.088200000000     0.575260000000     0.0355113  
H120     H      0.879380000000     0.069290000000     0.521380000000     0.0369046  
H121     H      0.030280000000     0.836620000000     0.563090000000     0.0399991  
H122     H      0.061960000000     0.633070000000     0.453530000000     0.0453492  
H123     H      0.045100000000     0.856980000000     0.430450000000     0.0460695  
H124     H      0.930590000000     0.657910000000     0.457450000000     0.0393084  
H125     H      0.088080000000     0.703180000000     0.403740000000     0.0345481  
H126     H      0.097930000000     0.785130000000     0.412170000000     0.0347809  
H127     H      0.086910000000     0.851100000000     0.474330000000     0.0361016  
H128     H      0.021310000000     0.640040000000     0.409540000000     0.0352082  
H129     H      0.934850000000     0.787980000000     0.571340000000     0.0361029  
H130     H      0.974390000000     0.857980000000     0.552130000000     0.0416624  
H131     H      0.913920000000     0.710300000000     0.550490000000     0.0352396  
H132     H      0.934870000000     0.638650000000     0.515320000000     0.0413308  
H133     H      0.046450000000     0.138300000000     0.561070000000     0.0454599  
H134     H      0.934000000000     0.336530000000     0.535320000000     0.0392858  
H135     H      0.032710000000     0.158440000000     0.428360000000     0.0396534  
H136     H      0.065020000000     0.361730000000     0.532480000000     0.0457327  
H137     H      0.915220000000     0.284050000000     0.441660000000     0.0351396  
H138     H      0.936400000000     0.206490000000     0.420470000000     0.0356901  
H139     H      0.976800000000     0.136880000000     0.438850000000     0.040648   
H140     H      0.935130000000     0.355490000000     0.477410000000     0.0408709  
H141     H      0.101070000000     0.210220000000     0.577930000000     0.0344881  
H142     H      0.088850000000     0.143220000000     0.517660000000     0.0345559  
H143     H      0.091850000000     0.292400000000     0.585250000000     0.0346524  
H144     H      0.026450000000     0.356290000000     0.579300000000     0.0354755  
N1       N      0.842610000000     0.510570000000     0.981760000000    -0.178101   
N2       N      0.604410000000     0.488650000000     0.995120000000    -0.178045   
N3       N      0.103960000000     0.508000000000     0.009280000000    -0.178038   
N4       N      0.343090000000     0.516420000000     0.992990000000    -0.178113   
N5       N      0.498860000000     0.872740000000     0.987060000000    -0.17883    
N6       N      0.490090000000     0.632020000000     0.982680000000    -0.178912   
N7       N      0.490290000000     0.133150000000     0.030540000000    -0.178607   
N8       N      0.463030000000     0.370500000000     0.004800000000    -0.178676   
N9       N      0.525740000000     0.987210000000     0.643720000000    -0.178341   
N10      N      0.493730000000     0.021320000000     0.878950000000    -0.178246   
N11      N      0.517910000000     0.993280000000     0.379930000000    -0.178198   
N12      N      0.495100000000     0.981990000000     0.140340000000    -0.178343   
N13      N      0.989030000000     0.521340000000     0.865750000000    -0.179072   
N14      N      0.998380000000     0.520090000000     0.624900000000    -0.178837   
N15      N      0.990640000000     0.475110000000     0.364730000000    -0.178667   
N16      N      0.963110000000     0.498800000000     0.127320000000    -0.178778   
N17      N      0.149640000000     0.001130000000     0.498740000000    -0.179077   
N18      N      0.387490000000     0.986950000000     0.518390000000    -0.178867   
N19      N      0.887980000000     0.003710000000     0.493550000000    -0.178847   
N20      N      0.649320000000     0.992880000000     0.510470000000    -0.179334   
N21      N      0.993150000000     0.627920000000     0.474450000000    -0.178269   
N22      N      0.021190000000     0.865520000000     0.498040000000    -0.178006   
N23      N      0.995390000000     0.366870000000     0.515660000000    -0.178507   
N24      N      0.023240000000     0.129430000000     0.493310000000    -0.178643   
O1       O      0.016750000000     0.061050000000     0.456700000000    -0.553409   
O2       O      0.022370000000     0.932520000000     0.459380000000    -0.557758   
O3       O      0.955450000000     0.993970000000     0.457080000000    -0.555065   
O4       O      0.083340000000     0.998230000000     0.459080000000    -0.555208   
O5       O      0.081780000000     0.996130000000     0.534800000000    -0.560096   
O6       O      0.954580000000     0.002930000000     0.532250000000    -0.559979   
O7       O      0.014280000000     0.934010000000     0.534630000000    -0.553145   
O8       O      0.022430000000     0.062560000000     0.532190000000    -0.558528   
O9       O      0.956920000000     0.433470000000     0.505490000000    -0.554677   
O10      O      0.955820000000     0.560910000000     0.486560000000    -0.553874   
O11      O      0.954500000000     0.486130000000     0.432540000000    -0.553573   
O12      O      0.958280000000     0.508130000000     0.559520000000    -0.553618   
O13      O      0.033470000000     0.507730000000     0.557020000000    -0.561468   
O14      O      0.029680000000     0.487270000000     0.430420000000    -0.561494   
O15      O      0.030930000000     0.560790000000     0.482460000000    -0.558584   
O16      O      0.032140000000     0.434200000000     0.505070000000    -0.558807   
O17      O      0.517700000000     0.950570000000     0.575400000000    -0.551558   
O18      O      0.520740000000     0.953910000000     0.446570000000    -0.556147   
O19      O      0.582950000000     0.953330000000     0.511030000000    -0.556292   
O20      O      0.455190000000     0.950900000000     0.509280000000    -0.556272   
O21      O      0.454030000000     0.025990000000     0.518780000000    -0.558637   
O22      O      0.581220000000     0.029040000000     0.509120000000    -0.558957   
O23      O      0.512290000000     0.029110000000     0.448830000000    -0.554636   
O24      O      0.523300000000     0.026060000000     0.576970000000    -0.559375   
O25      O      0.454390000000     0.065070000000     0.020410000000    -0.55321    
O26      O      0.458570000000     0.937950000000     0.999260000000    -0.553459   
O27      O      0.456800000000     0.992380000000     0.073630000000    -0.554136   
O28      O      0.456130000000     0.010440000000     0.946020000000    -0.553536   
O29      O      0.531220000000     0.014760000000     0.946390000000    -0.558619   
O30      O      0.532020000000     0.993060000000     0.073150000000    -0.558591   
O31      O      0.533740000000     0.940640000000     0.999930000000    -0.561239   
O32      O      0.529560000000     0.067390000000     0.019490000000    -0.561266   
O33      O      0.982930000000     0.477640000000     0.929410000000    -0.556733   
O34      O      0.963860000000     0.466440000000     0.056390000000    -0.551398   
O35      O      0.910020000000     0.472820000000     0.982970000000    -0.555233   
O36      O      0.036560000000     0.471070000000     0.000900000000    -0.555668   
O37      O      0.037080000000     0.546720000000     0.004200000000    -0.553599   
O38      O      0.909200000000     0.547290000000     0.996420000000    -0.554721   
O39      O      0.970100000000     0.541560000000     0.063320000000    -0.562163   
O40      O      0.976510000000     0.552830000000     0.935640000000    -0.55694    
O41      O      0.470310000000     0.434500000000     0.961990000000    -0.561268   
O42      O      0.477120000000     0.562280000000     0.950920000000    -0.55632    
O43      O      0.537400000000     0.493500000000     0.956770000000    -0.554923   
O44      O      0.409660000000     0.501680000000     0.956370000000    -0.55579    
O45      O      0.410480000000     0.514910000000     0.030880000000    -0.554095   
O46      O      0.537130000000     0.496780000000     0.032420000000    -0.554728   
O47      O      0.483570000000     0.568290000000     0.026130000000    -0.557028   
O48      O      0.464240000000     0.441410000000     0.037130000000    -0.551607   
V1       V      0.019440000000     0.996420000000     0.454950000000     1.38617    
V2       V      0.018100000000     0.998680000000     0.536550000000     1.39892    
V3       V      0.953330000000     0.497150000000     0.496120000000     1.38061    
V4       V      0.034510000000     0.497500000000     0.493640000000     1.40707    
V5       V      0.519120000000     0.949060000000     0.510590000000     1.38509    
V6       V      0.517530000000     0.030630000000     0.513290000000     1.39931    
V7       V      0.453430000000     0.001390000000     0.009860000000     1.37956    
V8       V      0.534590000000     0.004090000000     0.009770000000     1.40637    
V9       V      0.973230000000     0.468900000000     0.992300000000     1.38707    
V10      V      0.973160000000     0.550160000000     0.000020000000     1.39339    
V11      V      0.473560000000     0.497860000000     0.953450000000     1.39453    
V12      V      0.473750000000     0.505440000000     0.034740000000     1.38524    


