data_structure

_audit_creation_method RASPA-1.0
_audit_creation_date 2023-5-19
_audit_author_name 'Poobodin Mano'

_cell_length_a    16.8246
_cell_length_b    16.8688
_cell_length_c    16.4714
_cell_angle_alpha 90
_cell_angle_beta  90
_cell_angle_gamma 90
_cell_volume      4674.76

_symmetry_cell_setting          triclinic
_symmetry_space_group_name_Hall 'P 1'
_symmetry_space_group_name_H-M  'P 1'
_symmetry_Int_Tables_number     1

_symmetry_equiv_pos_as_xyz 'x,y,z'

loop_
_atom_site_label
_atom_site_type_symbol
_atom_site_fract_x
_atom_site_fract_y
_atom_site_fract_z
_atom_site_charge
C1       C      0.006040000000     0.179060000000     0.551440000000     0.48682    
C2       C      0.046870000000     0.884320000000     0.580120000000     0.495077   
C3       C      0.880180000000     0.009920000000     0.553910000000     0.497153   
C4       C      0.175760000000     0.048790000000     0.566630000000     0.494694   
C5       C      0.060920000000     0.383630000000     0.519250000000     0.485946   
C6       C      0.090900000000     0.680590000000     0.534920000000     0.493723   
C7       C      0.023960000000     0.543580000000     0.388660000000     0.496375   
C8       C      0.124220000000     0.527800000000     0.675890000000     0.488867   
C9       C      0.544900000000     0.020180000000     0.746660000000     0.48905    
C10      C      0.519760000000     0.120600000000     0.457700000000     0.481284   
C11      C      0.677680000000     0.065250000000     0.593090000000     0.497542   
C12      C      0.381110000000     0.082120000000     0.621170000000     0.49195    
C13      C      0.574930000000     0.208060000000     0.074370000000     0.485832   
C14      C      0.521360000000     0.914990000000     0.108970000000     0.480147   
C15      C      0.500430000000     0.090690000000     0.242970000000     0.478466   
C16      C      0.588620000000     0.038530000000     0.953340000000     0.490341   
C17      C      0.093890000000     0.574420000000     0.883500000000     0.489353   
C18      C      0.044230000000     0.513120000000     0.178290000000     0.498649   
C19      C      0.921670000000     0.516320000000     0.007190000000     0.479149   
C20      C      0.211720000000     0.578140000000     0.065880000000     0.481884   
C21      C      0.556550000000     0.414520000000     0.024290000000     0.486675   
C22      C      0.571000000000     0.704180000000     0.103850000000     0.478377   
C23      C      0.710220000000     0.559490000000     0.013100000000     0.47515    
C24      C      0.421000000000     0.554040000000     0.102370000000     0.482197   
H1       H      0.823580000000     0.440710000000     0.007690000000     0.104161   
H2       H      0.798380000000     0.593140000000     0.932960000000     0.107804   
H3       H      0.301870000000     0.659450000000     0.081830000000     0.107238   
H4       H      0.326270000000     0.519920000000     0.176060000000     0.104818   
H5       H      0.599290000000     0.794720000000     0.183880000000     0.111411   
H6       H      0.460640000000     0.813840000000     0.073030000000     0.109341   
H7       H      0.524590000000     0.315400000000     0.954950000000     0.108221   
H8       H      0.651040000000     0.303030000000     0.079100000000     0.112571   
H9       H      0.544080000000     0.929970000000     0.831170000000     0.106877   
H10      H      0.672060000000     0.023760000000     0.862120000000     0.105254   
H11      H      0.536240000000     0.203600000000     0.366020000000     0.103509   
H12      H      0.412730000000     0.100030000000     0.330240000000     0.104582   
H13      H      0.208450000000     0.523930000000     0.768090000000     0.107023   
H14      H      0.089880000000     0.645290000000     0.781060000000     0.106473   
H15      H      0.939090000000     0.564390000000     0.299690000000     0.110513   
H16      H      0.050970000000     0.437010000000     0.275730000000     0.110642   
H17      H      0.283840000000     0.033920000000     0.511700000000     0.112964   
H18      H      0.275900000000     0.134490000000     0.659720000000     0.110152   
H19      H      0.774600000000     0.985380000000     0.494950000000     0.112894   
H20      H      0.787370000000     0.106880000000     0.625830000000     0.113231   
H21      H      0.043140000000     0.781620000000     0.648110000000     0.110678   
H22      H      0.146830000000     0.785710000000     0.503950000000     0.110865   
H23      H      0.097870000000     0.275930000000     0.473050000000     0.109992   
H24      H      0.967030000000     0.285490000000     0.596270000000     0.113381   
N1       N      0.842430000000     0.499680000000     0.004390000000    -0.186796   
N2       N      0.786390000000     0.559080000000     0.984610000000    -0.183687   
N3       N      0.287700000000     0.599070000000     0.084050000000    -0.18524    
N4       N      0.342940000000     0.548730000000     0.122520000000    -0.186968   
N5       N      0.568650000000     0.780540000000     0.130560000000    -0.186721   
N6       N      0.512250000000     0.835200000000     0.100930000000    -0.187974   
N7       N      0.551930000000     0.335970000000     0.007900000000    -0.188876   
N8       N      0.595720000000     0.283790000000     0.057550000000    -0.187539   
N9       N      0.558240000000     0.989580000000     0.821280000000    -0.18639    
N10      N      0.611450000000     0.024980000000     0.876040000000    -0.188776   
N11      N      0.518590000000     0.145570000000     0.379100000000    -0.186386   
N12      N      0.473900000000     0.104500000000     0.319940000000    -0.184246   
N13      N      0.149820000000     0.538210000000     0.753020000000    -0.187747   
N14      N      0.107600000000     0.590290000000     0.804220000000    -0.188529   
N15      N      0.996430000000     0.543790000000     0.312160000000    -0.189669   
N16      N      0.033420000000     0.493540000000     0.256430000000    -0.191475   
N17      N      0.255740000000     0.051100000000     0.565700000000    -0.191199   
N18      N      0.301280000000     0.088840000000     0.625420000000    -0.190061   
N19      N      0.800560000000     0.008040000000     0.547810000000    -0.191363   
N20      N      0.757240000000     0.061120000000     0.595710000000    -0.192391   
N21      N      0.056630000000     0.805870000000     0.591240000000    -0.190079   
N22      N      0.099500000000     0.759930000000     0.535630000000    -0.190412   
N23      N      0.052830000000     0.304710000000     0.505570000000    -0.189962   
N24      N      0.996950000000     0.258720000000     0.547760000000    -0.188685   
O1       O      0.017600000000     0.137600000000     0.486500000000    -0.544862   
O2       O      0.047390000000     0.913680000000     0.508040000000    -0.54947    
O3       O      0.921230000000     0.007620000000     0.488850000000    -0.574205   
O4       O      0.141300000000     0.037990000000     0.498740000000    -0.581797   
O5       O      0.136330000000     0.053290000000     0.633650000000    -0.54886    
O6       O      0.912210000000     0.022900000000     0.623540000000    -0.558098   
O7       O      0.036880000000     0.927710000000     0.642790000000    -0.574258   
O8       O      0.006380000000     0.147110000000     0.621520000000    -0.573742   
O9       O      0.002600000000     0.425070000000     0.547430000000    -0.54556    
O10      O      0.025640000000     0.649640000000     0.560070000000    -0.552128   
O11      O      0.974610000000     0.548850000000     0.447350000000    -0.5671     
O12      O      0.049570000000     0.531950000000     0.662090000000    -0.558719   
O13      O      0.174720000000     0.520510000000     0.617580000000    -0.557349   
O14      O      0.098540000000     0.532430000000     0.400700000000    -0.557528   
O15      O      0.148480000000     0.637950000000     0.509200000000    -0.570494   
O16      O      0.127500000000     0.415770000000     0.501850000000    -0.569601   
O17      O      0.530700000000     0.972130000000     0.688250000000    -0.56445    
O18      O      0.514620000000     0.046370000000     0.472180000000    -0.549831   
O19      O      0.636010000000     0.005130000000     0.570570000000    -0.552197   
O20      O      0.411630000000     0.018610000000     0.591380000000    -0.555815   
O21      O      0.424310000000     0.141220000000     0.641530000000    -0.567577   
O22      O      0.645710000000     0.129520000000     0.617060000000    -0.578581   
O23      O      0.528030000000     0.171060000000     0.516260000000    -0.547288   
O24      O      0.547720000000     0.095520000000     0.735020000000    -0.539427   
O25      O      0.504670000000     0.181870000000     0.058920000000    -0.540246   
O26      O      0.464180000000     0.960780000000     0.087160000000    -0.551653   
O27      O      0.449660000000     0.089960000000     0.184600000000    -0.554517   
O28      O      0.515100000000     0.051500000000     0.967830000000    -0.548901   
O29      O      0.640570000000     0.037480000000     0.010670000000    -0.553282   
O30      O      0.574180000000     0.075510000000     0.229510000000    -0.533497   
O31      O      0.588460000000     0.943700000000     0.131900000000    -0.544857   
O32      O      0.627890000000     0.163450000000     0.106320000000    -0.563327   
O33      O      0.104370000000     0.503960000000     0.910380000000    -0.551075   
O34      O      0.067510000000     0.458480000000     0.130620000000    -0.575401   
O35      O      0.973790000000     0.460170000000     0.001340000000    -0.540612   
O36      O      0.193520000000     0.506060000000     0.047760000000    -0.531021   
O37      O      0.159180000000     0.633120000000     0.064090000000    -0.562171   
O38      O      0.943180000000     0.587810000000     0.020300000000    -0.549738   
O39      O      0.033420000000     0.584800000000     0.153680000000    -0.54733    
O40      O      0.068910000000     0.630320000000     0.930040000000    -0.557705   
O41      O      0.540060000000     0.467110000000     0.969910000000    -0.544247   
O42      O      0.548810000000     0.686690000000     0.031170000000    -0.536795   
O43      O      0.654470000000     0.582210000000     0.965200000000    -0.553715   
O44      O      0.438640000000     0.574450000000     0.029940000000    -0.549471   
O45      O      0.475770000000     0.538500000000     0.155020000000    -0.544233   
O46      O      0.694710000000     0.540080000000     0.087050000000    -0.531591   
O47      O      0.594020000000     0.650000000000     0.153110000000    -0.558321   
O48      O      0.578860000000     0.434520000000     0.095390000000    -0.562315   
V1       V      0.031850000000     0.024150000000     0.489950000000     1.41761    
V2       V      0.023080000000     0.038140000000     0.635890000000     1.42305    
V3       V      0.008000000000     0.538660000000     0.556250000000     1.40677    
V4       V      0.142540000000     0.526180000000     0.506060000000     1.42393    
V5       V      0.522780000000     0.005530000000     0.578820000000     1.41055    
V6       V      0.536150000000     0.139650000000     0.628820000000     1.40765    
V7       V      0.478140000000     0.072090000000     0.073800000000     1.38958    
V8       V      0.612540000000     0.053980000000     0.121870000000     1.38682    
V9       V      0.085960000000     0.477090000000     0.020750000000     1.38756    
V10      V      0.050110000000     0.614120000000     0.042820000000     1.40584    
V11      V      0.544630000000     0.579020000000     0.993770000000     1.37679    
V12      V      0.587400000000     0.540130000000     0.127830000000     1.39069    


