data_structure

_audit_creation_method RASPA-1.0
_audit_creation_date 2023-5-19
_audit_author_name 'Poobodin Mano'

_cell_length_a    17.5068
_cell_length_b    16.8663
_cell_length_c    17.0763
_cell_angle_alpha 90
_cell_angle_beta  90
_cell_angle_gamma 90
_cell_volume      5042.2

_symmetry_cell_setting          triclinic
_symmetry_space_group_name_Hall 'P 1'
_symmetry_space_group_name_H-M  'P 1'
_symmetry_Int_Tables_number     1

_symmetry_equiv_pos_as_xyz 'x,y,z'

loop_
_atom_site_label
_atom_site_type_symbol
_atom_site_fract_x
_atom_site_fract_y
_atom_site_fract_z
_atom_site_charge
C1       C      0.973700000000     0.266300000000     0.617670000000     0.493225   
C2       C      0.078540000000     0.989380000000     0.652270000000     0.491596   
C3       C      0.894310000000     0.069300000000     0.601140000000     0.490987   
C4       C      0.153910000000     0.182080000000     0.668680000000     0.491812   
C5       C      0.072150000000     0.486450000000     0.579450000000     0.491934   
C6       C      0.155600000000     0.745600000000     0.701170000000     0.492597   
C7       C      0.130830000000     0.677720000000     0.506170000000     0.490371   
C8       C      0.099110000000     0.558480000000     0.775850000000     0.492261   
C9       C      0.580450000000     0.126810000000     0.692760000000     0.490946   
C10      C      0.488050000000     0.102570000000     0.413060000000     0.491883   
C11      C      0.672120000000     0.103710000000     0.508110000000     0.491882   
C12      C      0.398120000000     0.129020000000     0.599080000000     0.490016   
C13      C      0.576310000000     0.225710000000     0.127340000000     0.491202   
C14      C      0.626330000000     0.954840000000     0.010620000000     0.488571   
C15      C      0.558320000000     0.029270000000     0.195100000000     0.492278   
C16      C      0.646270000000     0.156070000000     0.942360000000     0.489037   
C17      C      0.068690000000     0.556310000000     0.035500000000     0.491028   
C18      C      0.180390000000     0.714050000000     0.259880000000     0.492797   
C19      C      0.992580000000     0.673950000000     0.190870000000     0.49356    
C20      C      0.258840000000     0.598390000000     0.103670000000     0.49032    
C21      C      0.604810000000     0.474170000000     0.183640000000     0.49188    
C22      C      0.683520000000     0.699740000000     0.005860000000     0.489591   
C23      C      0.773150000000     0.584930000000     0.156770000000     0.493208   
C24      C      0.511300000000     0.586140000000     0.031820000000     0.49056    
C25      C      0.869370000000     0.637390000000     0.250440000000     0.090462   
C26      C      0.375370000000     0.628850000000     0.027950000000     0.0883342  
C27      C      0.713170000000     0.842290000000     0.985850000000     0.0916267  
C28      C      0.611920000000     0.332330000000     0.219320000000     0.0920191  
C29      C      0.621030000000     0.206030000000     0.808060000000     0.0913542  
C30      C      0.459240000000     0.019480000000     0.297210000000     0.0882623  
C31      C      0.024530000000     0.543640000000     0.897670000000     0.0906709  
C32      C      0.215690000000     0.723390000000     0.399660000000     0.091587   
C33      C      0.287410000000     0.213710000000     0.632050000000     0.0902083  
C34      C      0.794540000000     0.029940000000     0.504710000000     0.0888569  
C35      C      0.126260000000     0.883290000000     0.739320000000     0.0919454  
C36      C      0.970350000000     0.390970000000     0.541650000000     0.0907769  
H1       H      0.882660000000     0.540710000000     0.169290000000     0.111673   
H2       H      0.896970000000     0.746630000000     0.191300000000     0.105677   
H3       H      0.821210000000     0.669670000000     0.278420000000     0.0222423  
H4       H      0.899660000000     0.604970000000     0.297890000000     0.022899   
H5       H      0.356620000000     0.528990000000     0.106140000000     0.109713   
H6       H      0.431970000000     0.547000000000     0.950370000000     0.104324   
H7       H      0.339430000000     0.647030000000     0.977320000000     0.0224518  
H8       H      0.393710000000     0.683700000000     0.058810000000     0.0294448  
H9       H      0.593780000000     0.852400000000     0.951900000000     0.110343   
H10      H      0.729650000000     0.746260000000     0.903750000000     0.101523   
H11      H      0.754320000000     0.874800000000     0.948060000000     0.0148457  
H12      H      0.735170000000     0.844490000000     0.046980000000     0.0288868  
H13      H      0.506210000000     0.320720000000     0.154380000000     0.109889   
H14      H      0.563630000000     0.427690000000     0.288050000000     0.10042    
H15      H      0.609000000000     0.298130000000     0.274900000000     0.0146079  
H16      H      0.672030000000     0.330550000000     0.198100000000     0.0302105  
H17      H      0.728510000000     0.206300000000     0.870230000000     0.101046   
H18      H      0.607890000000     0.078610000000     0.800200000000     0.11413    
H19      H      0.566520000000     0.233620000000     0.827390000000     0.0233149  
H20      H      0.650120000000     0.248020000000     0.767640000000     0.0192655  
H21      H      0.576600000000     0.983920000000     0.305990000000     0.108646   
H22      H      0.453880000000     0.147180000000     0.305320000000     0.105714   
H23      H      0.415670000000     0.022310000000     0.249930000000     0.021904   
H24      H      0.441220000000     0.971210000000     0.337530000000     0.0217505  
H25      H      0.025220000000     0.453180000000     0.986690000000     0.102643   
H26      H      0.139720000000     0.501470000000     0.874860000000     0.109858   
H27      H      0.975690000000     0.511520000000     0.870750000000     0.0168481  
H28      H      0.009780000000     0.607800000000     0.899390000000     0.031239   
H29      H      0.219660000000     0.817030000000     0.313040000000     0.101796   
H30      H      0.093670000000     0.744010000000     0.411430000000     0.109916   
H31      H      0.245120000000     0.664980000000     0.396560000000     0.0301981  
H32      H      0.251380000000     0.763760000000     0.435860000000     0.0134513  
H33      H      0.293630000000     0.084980000000     0.636310000000     0.110305   
H34      H      0.236460000000     0.220810000000     0.746890000000     0.103944   
H35      H      0.328500000000     0.259160000000     0.653360000000     0.0208172  
H36      H      0.266560000000     0.233190000000     0.573620000000     0.0260896  
H37      H      0.774950000000     0.150780000000     0.470080000000     0.107372   
H38      H      0.787810000000     0.024540000000     0.630520000000     0.10857    
H39      H      0.761010000000     0.974160000000     0.499900000000     0.0217185  
H40      H      0.841260000000     0.025790000000     0.460830000000     0.0220153  
H41      H      0.236070000000     0.824700000000     0.744350000000     0.102275   
H42      H      0.134730000000     0.889460000000     0.612410000000     0.111089   
H43      H      0.070940000000     0.864400000000     0.765360000000     0.027014   
H44      H      0.152440000000     0.928020000000     0.778950000000     0.0153842  
H45      H      0.926980000000     0.371600000000     0.658500000000     0.106345   
H46      H      0.092320000000     0.375110000000     0.532370000000     0.109083   
H47      H      0.962140000000     0.356290000000     0.486910000000     0.0197882  
H48      H      0.931080000000     0.442630000000     0.537900000000     0.0213251  
N1       N      0.920640000000     0.694000000000     0.212720000000    -0.24124    
N2       N      0.842640000000     0.580870000000     0.191540000000    -0.241041   
N3       N      0.441160000000     0.584790000000     0.998000000000    -0.241651   
N4       N      0.330770000000     0.578890000000     0.081210000000    -0.239882   
N5       N      0.708560000000     0.759730000000     0.959470000000    -0.241599   
N6       N      0.638450000000     0.881100000000     0.981090000000    -0.237587   
N7       N      0.589420000000     0.414450000000     0.234380000000    -0.242515   
N8       N      0.560560000000     0.296130000000     0.162060000000    -0.237606   
N9       N      0.605090000000     0.131250000000     0.767900000000    -0.239707   
N10      N      0.670700000000     0.191670000000     0.875570000000    -0.242118   
N11      N      0.462450000000     0.095700000000     0.338290000000    -0.24084    
N12      N      0.534970000000     0.001680000000     0.265710000000    -0.240895   
N13      N      0.093010000000     0.531030000000     0.850160000000    -0.240243   
N14      N      0.036870000000     0.513170000000     0.976840000000    -0.241862   
N15      N      0.140430000000     0.714710000000     0.436300000000    -0.238146   
N16      N      0.207890000000     0.756780000000     0.320930000000    -0.242871   
N17      N      0.224400000000     0.208940000000     0.688060000000    -0.24228    
N18      N      0.325190000000     0.136390000000     0.625030000000    -0.239936   
N19      N      0.824950000000     0.037430000000     0.584270000000    -0.240238   
N20      N      0.746870000000     0.098930000000     0.487400000000    -0.240316   
N21      N      0.113290000000     0.918350000000     0.662000000000    -0.240001   
N22      N      0.178140000000     0.815650000000     0.732390000000    -0.243645   
N23      N      0.050220000000     0.416420000000     0.547290000000    -0.240421   
N24      N      0.950800000000     0.342810000000     0.610080000000    -0.240484   
O1       O      0.003920000000     0.230410000000     0.559060000000    -0.564794   
O2       O      0.077590000000     0.020590000000     0.583800000000    -0.565562   
O3       O      0.941780000000     0.084860000000     0.545850000000    -0.560764   
O4       O      0.138390000000     0.165120000000     0.597080000000    -0.56153    
O5       O      0.104150000000     0.172780000000     0.723050000000    -0.564632   
O6       O      0.911380000000     0.083000000000     0.672980000000    -0.562508   
O7       O      0.049800000000     0.025500000000     0.711570000000    -0.562863   
O8       O      0.966750000000     0.231820000000     0.684330000000    -0.562044   
O9       O      0.021720000000     0.538490000000     0.597750000000    -0.563377   
O10      O      0.084780000000     0.734370000000     0.685200000000    -0.562935   
O11      O      0.065090000000     0.680050000000     0.539420000000    -0.562304   
O12      O      0.042310000000     0.594110000000     0.743750000000    -0.562794   
O13      O      0.162690000000     0.549850000000     0.739510000000    -0.563787   
O14      O      0.187720000000     0.642880000000     0.538850000000    -0.563107   
O15      O      0.205930000000     0.692260000000     0.686740000000    -0.56441    
O16      O      0.143550000000     0.499320000000     0.591170000000    -0.562344   
O17      O      0.564010000000     0.058450000000     0.664830000000    -0.567685   
O18      O      0.498740000000     0.039980000000     0.454340000000    -0.565371   
O19      O      0.635160000000     0.040870000000     0.527670000000    -0.560052   
O20      O      0.427820000000     0.059610000000     0.592750000000    -0.560039   
O21      O      0.436420000000     0.191420000000     0.581830000000    -0.565864   
O22      O      0.640050000000     0.172030000000     0.509410000000    -0.5644     
O23      O      0.501380000000     0.171840000000     0.441230000000    -0.560255   
O24      O      0.574070000000     0.189890000000     0.650870000000    -0.558089   
O25      O      0.524100000000     0.192080000000     0.086560000000    -0.56423    
O26      O      0.559920000000     0.986410000000     0.003850000000    -0.561359   
O27      O      0.508970000000     0.045250000000     0.141650000000    -0.560654   
O28      O      0.575860000000     0.135760000000     0.949630000000    -0.557989   
O29      O      0.694620000000     0.143090000000     0.997340000000    -0.565696   
O30      O      0.629730000000     0.041860000000     0.184210000000    -0.564793   
O31      O      0.680980000000     0.991650000000     0.045270000000    -0.561222   
O32      O      0.641960000000     0.192930000000     0.137090000000    -0.56002    
O33      O      0.081600000000     0.522130000000     0.101200000000    -0.568318   
O34      O      0.163950000000     0.640570000000     0.269630000000    -0.561738   
O35      O      0.022870000000     0.609740000000     0.216930000000    -0.562863   
O36      O      0.223600000000     0.553790000000     0.152770000000    -0.562699   
O37      O      0.227300000000     0.661070000000     0.075910000000    -0.563053   
O38      O      0.028470000000     0.718930000000     0.142840000000    -0.565145   
O39      O      0.170230000000     0.748340000000     0.193570000000    -0.562845   
O40      O      0.084850000000     0.629980000000     0.025110000000    -0.555589   
O41      O      0.633780000000     0.458390000000     0.116320000000    -0.558274   
O42      O      0.692120000000     0.627870000000     0.982590000000    -0.563207   
O43      O      0.760650000000     0.542130000000     0.096060000000    -0.566433   
O44      O      0.564180000000     0.542480000000     0.002850000000    -0.566079   
O45      O      0.523910000000     0.630490000000     0.091650000000    -0.558      
O46      O      0.720930000000     0.629990000000     0.185270000000    -0.56128    
O47      O      0.653350000000     0.715340000000     0.072640000000    -0.556583   
O48      O      0.592420000000     0.545910000000     0.205140000000    -0.564291   
V1       V      0.041450000000     0.125120000000     0.566280000000     1.40056    
V2       V      0.006410000000     0.128410000000     0.703010000000     1.39812    
V3       V      0.048540000000     0.638200000000     0.641520000000     1.4042     
V4       V      0.179800000000     0.594210000000     0.638850000000     1.39847    
V5       V      0.531080000000     0.044440000000     0.560260000000     1.40016    
V6       V      0.538350000000     0.186580000000     0.545230000000     1.39522    
V7       V      0.537460000000     0.089470000000     0.043370000000     1.39544    
V8       V      0.666690000000     0.092570000000     0.092620000000     1.39894    
V9       V      0.122940000000     0.577240000000     0.188150000000     1.4077     
V10      V      0.127930000000     0.693840000000     0.106170000000     1.39564    
V11      V      0.664160000000     0.539380000000     0.045690000000     1.40765    
V12      V      0.620850000000     0.634010000000     0.142150000000     1.39524    


