data_structure

_audit_creation_method RASPA-1.0
_audit_creation_date 2023-5-19
_audit_author_name 'Poobodin Mano'

_cell_length_a    16.812
_cell_length_b    12.6568
_cell_length_c    18.5844
_cell_angle_alpha 90
_cell_angle_beta  90
_cell_angle_gamma 90
_cell_volume      3954.5

_symmetry_cell_setting          triclinic
_symmetry_space_group_name_Hall 'P 1'
_symmetry_space_group_name_H-M  'P 1'
_symmetry_Int_Tables_number     1

_symmetry_equiv_pos_as_xyz 'x,y,z'

loop_
_atom_site_label
_atom_site_type_symbol
_atom_site_fract_x
_atom_site_fract_y
_atom_site_fract_z
_atom_site_charge
C1       C      0.269960000000     0.486710000000     0.583850000000     0.490386   
C2       C      0.025430000000     0.346760000000     0.709810000000     0.493408   
C3       C      0.057260000000     0.501410000000     0.552690000000     0.488184   
C4       C      0.234010000000     0.337840000000     0.742560000000     0.488124   
C5       C      0.213700000000     0.775940000000     0.556680000000     0.497906   
C6       C      0.090330000000     0.041950000000     0.725830000000     0.49625    
C7       C      0.131790000000     0.028730000000     0.535090000000     0.48241    
C8       C      0.173360000000     0.782530000000     0.746630000000     0.481494   
C9       C      0.735150000000     0.397580000000     0.734380000000     0.49071    
C10      C      0.584230000000     0.338940000000     0.502930000000     0.488778   
C11      C      0.774090000000     0.447570000000     0.547120000000     0.484664   
C12      C      0.547980000000     0.283340000000     0.687890000000     0.48711    
C13      C      0.878430000000     0.523770000000     0.180560000000     0.488609   
C14      C      0.627880000000     0.410600000000     0.051190000000     0.488075   
C15      C      0.708970000000     0.365090000000     0.225500000000     0.487298   
C16      C      0.796070000000     0.564570000000     0.003910000000     0.486103   
C17      C      0.253180000000     0.842200000000     0.010360000000     0.485886   
C18      C      0.170070000000     0.994370000000     0.251150000000     0.484642   
C19      C      0.089730000000     0.992330000000     0.072390000000     0.489792   
C20      C      0.334390000000     0.837450000000     0.190480000000     0.486289   
C21      C      0.849620000000     0.881420000000     0.197560000000     0.491482   
C22      C      0.629020000000     0.050200000000     0.052080000000     0.491176   
C23      C      0.836320000000     0.101250000000     0.076850000000     0.484679   
C24      C      0.640790000000     0.833430000000     0.174080000000     0.483208   
C25      C      0.020740000000     0.133420000000     0.004100000000    -0.000103832
C26      C      0.934740000000     0.163440000000     0.986030000000    -0.00502522 
C27      C      0.539070000000     0.785300000000     0.264190000000    -0.00140516 
C28      C      0.467630000000     0.856740000000     0.246180000000    -0.0028759  
C29      C      0.529020000000     0.192130000000     0.031520000000    -0.00017804 
C30      C      0.552470000000     0.280540000000     0.978900000000    -0.00420089 
C31      C      0.948720000000     0.651340000000     0.258700000000    -0.00968057 
C32      C      0.958800000000     0.749300000000     0.210520000000     0.0105899  
C33      C      0.831370000000     0.551560000000     0.875990000000    -0.00642375 
C34      C      0.754960000000     0.501830000000     0.845900000000    -0.00182755 
C35      C      0.584550000000     0.276550000000     0.378150000000    -0.00812309 
C36      C      0.641230000000     0.356190000000     0.343220000000    -0.00466703 
C37      C      0.255010000000     0.699110000000     0.918610000000    -0.00311886 
C38      C      0.260880000000     0.691090000000     0.835990000000    -0.00555933 
C39      C      0.089550000000     0.990110000000     0.363480000000    -0.00212527 
C40      C      0.061340000000     0.069290000000     0.421040000000    -0.00642234 
C41      C      0.420710000000     0.299550000000     0.752170000000    -0.0059191  
C42      C      0.350390000000     0.229450000000     0.774010000000    -0.00437296 
C43      C      0.896490000000     0.422500000000     0.475840000000    -0.00359113 
C44      C      0.966900000000     0.486990000000     0.447100000000    -0.00432489 
C45      C      0.932470000000     0.198920000000     0.733960000000    -0.00205469 
C46      C      0.972680000000     0.121730000000     0.785740000000     0.00202669 
C47      C      0.368520000000     0.627900000000     0.556760000000     0.000570713
C48      C      0.332190000000     0.698280000000     0.498440000000     0.000906174
H1       H      0.975910000000     0.978060000000     0.033100000000     0.114319   
H2       H      0.897010000000     0.243520000000     0.082210000000     0.0676267  
H3       H      0.046600000000     0.194660000000     0.040130000000     0.0410978  
H4       H      0.056150000000     0.131090000000     0.953620000000     0.0325833  
H5       H      0.908000000000     0.103510000000     0.949610000000     0.0377897  
H6       H      0.934800000000     0.240130000000     0.956890000000     0.0204314  
H7       H      0.575900000000     0.693490000000     0.171470000000     0.0855221  
H8       H      0.392010000000     0.718010000000     0.244710000000     0.100443   
H9       H      0.519210000000     0.709610000000     0.288630000000     0.0258828  
H10      H      0.576620000000     0.824630000000     0.305580000000     0.0346986  
H11      H      0.484190000000     0.914540000000     0.203640000000     0.0516493  
H12      H      0.451340000000     0.902240000000     0.295180000000     0.0307978  
H13      H      0.557120000000     0.061330000000     0.961800000000     0.0999681  
H14      H      0.509740000000     0.429280000000     0.020950000000     0.0993426  
H15      H      0.463760000000     0.178870000000     0.028430000000     0.021403   
H16      H      0.542240000000     0.215340000000     0.088000000000     0.0482528  
H17      H      0.506080000000     0.287910000000     0.936540000000     0.025467   
H18      H      0.609080000000     0.261590000000     0.950570000000     0.0463527  
H19      H      0.997270000000     0.509500000000     0.210150000000     0.0961409  
H20      H      0.919490000000     0.864370000000     0.288770000000     0.0993139  
H21      H      0.894070000000     0.657530000000     0.292270000000     0.044217   
H22      H      0.999710000000     0.646420000000     0.296660000000     0.0238563  
H23      H      0.945230000000     0.729850000000     0.153480000000     0.0473771  
H24      H      0.021980000000     0.774540000000     0.211750000000     0.0145906  
H25      H      0.795930000000     0.692370000000     0.933890000000     0.0845475  
H26      H      0.806320000000     0.350480000000     0.819350000000     0.0983868  
H27      H      0.858220000000     0.604200000000     0.834730000000     0.0314228  
H28      H      0.876110000000     0.489640000000     0.889000000000     0.0439296  
H29      H      0.720760000000     0.564920000000     0.818060000000     0.0416261  
H30      H      0.716930000000     0.471890000000     0.890380000000     0.038364   
H31      H      0.500400000000     0.381140000000     0.427080000000     0.0984337  
H32      H      0.703280000000     0.230190000000     0.288130000000     0.0795726  
H33      H      0.617310000000     0.204570000000     0.395560000000     0.0382651  
H34      H      0.538560000000     0.252150000000     0.338520000000     0.0303966  
H35      H      0.685350000000     0.384300000000     0.383480000000     0.036649   
H36      H      0.605570000000     0.425220000000     0.324890000000     0.0432377  
H37      H      0.309400000000     0.854500000000     0.912110000000     0.104098   
H38      H      0.136690000000     0.663140000000     0.814960000000     0.083018   
H39      H      0.298980000000     0.644010000000     0.942860000000     0.03074    
H40      H      0.194830000000     0.674150000000     0.936810000000     0.0436593  
H41      H      0.278180000000     0.608940000000     0.821810000000     0.0292164  
H42      H      0.308970000000     0.742890000000     0.814980000000     0.0409892  
H43      H      0.169950000000     0.113530000000     0.326940000000     0.10231    
H44      H      0.168850000000     0.141940000000     0.461660000000     0.089216   
H45      H      0.036760000000     0.963320000000     0.332470000000     0.0352279  
H46      H      0.116970000000     0.919920000000     0.389560000000     0.0420567  
H47      H      0.006390000000     0.038900000000     0.447130000000     0.0378934  
H48      H      0.045020000000     0.145400000000     0.395070000000     0.0304271  
H49      H      0.489230000000     0.156040000000     0.733930000000     0.0951119  
H50      H      0.288110000000     0.337720000000     0.842300000000     0.0978465  
H51      H      0.441200000000     0.345500000000     0.799700000000     0.0346242  
H52      H      0.400270000000     0.356120000000     0.710150000000     0.0452286  
H53      H      0.367200000000     0.180790000000     0.821430000000     0.0267455  
H54      H      0.334090000000     0.174950000000     0.729410000000     0.0346162  
H55      H      0.832160000000     0.570090000000     0.494630000000     0.098298   
H56      H      0.986370000000     0.622980000000     0.514450000000     0.0962554  
H57      H      0.918950000000     0.365270000000     0.516490000000     0.0496851  
H58      H      0.870350000000     0.376790000000     0.430550000000     0.0328131  
H59      H      0.945260000000     0.543390000000     0.405710000000     0.0276502  
H60      H      0.010260000000     0.433430000000     0.420420000000     0.0375282  
H61      H      0.936810000000     0.351460000000     0.786730000000     0.100191   
H62      H      0.095560000000     0.168840000000     0.796220000000     0.106918   
H63      H      0.867530000000     0.197380000000     0.744520000000     0.0317511  
H64      H      0.941250000000     0.173170000000     0.677280000000     0.0455664  
H65      H      0.943630000000     0.042970000000     0.782180000000     0.0346161  
H66      H      0.964090000000     0.150850000000     0.841190000000     0.0251992  
H67      H      0.363150000000     0.471650000000     0.511670000000     0.102855   
H68      H      0.209330000000     0.652380000000     0.483450000000     0.105136   
H69      H      0.356960000000     0.661090000000     0.611180000000     0.0446855  
H70      H      0.434080000000     0.625480000000     0.549260000000     0.0196711  
H71      H      0.344100000000     0.663420000000     0.444580000000     0.0282278  
H72      H      0.360820000000     0.777480000000     0.499430000000     0.0357478  
N1       N      0.024040000000     0.029710000000     0.038800000000    -0.229059   
N2       N      0.887860000000     0.175150000000     0.051780000000    -0.234927   
N3       N      0.586620000000     0.763430000000     0.199790000000    -0.235458   
N4       N      0.398380000000     0.794430000000     0.224020000000    -0.228504   
N5       N      0.570060000000     0.094160000000     0.012120000000    -0.230255   
N6       N      0.560180000000     0.381320000000     0.016770000000    -0.231296   
N7       N      0.945460000000     0.554510000000     0.215500000000    -0.231733   
N8       N      0.908980000000     0.836530000000     0.236660000000    -0.229342   
N9       N      0.812090000000     0.613180000000     0.940500000000    -0.231242   
N10      N      0.772630000000     0.412500000000     0.798220000000    -0.231447   
N11      N      0.546050000000     0.327850000000     0.439230000000    -0.230984   
N12      N      0.684130000000     0.308530000000     0.283180000000    -0.231618   
N13      N      0.273070000000     0.806210000000     0.943870000000    -0.227032   
N14      N      0.184020000000     0.713120000000     0.801660000000    -0.234727   
N15      N      0.146750000000     0.039130000000     0.314160000000    -0.22776    
N16      N      0.123900000000     0.088120000000     0.474640000000    -0.233513   
N17      N      0.487060000000     0.237390000000     0.724080000000    -0.231429   
N18      N      0.283650000000     0.297810000000     0.793160000000    -0.230343   
N19      N      0.834320000000     0.489740000000     0.507650000000    -0.227499   
N20      N      0.005640000000     0.545580000000     0.505190000000    -0.227226   
N21      N      0.961930000000     0.306690000000     0.745390000000    -0.22875    
N22      N      0.058090000000     0.113760000000     0.771480000000    -0.22695    
N23      N      0.336970000000     0.520720000000     0.550290000000    -0.229337   
N24      N      0.246190000000     0.707290000000     0.509090000000    -0.228077   
O1       O      0.241150000000     0.397080000000     0.565570000000    -0.5714     
O2       O      0.060790000000     0.290210000000     0.662370000000    -0.565993   
O3       O      0.082160000000     0.406140000000     0.543630000000    -0.559585   
O4       O      0.219010000000     0.285120000000     0.684960000000    -0.554677   
O5       O      0.205300000000     0.430400000000     0.752330000000    -0.574142   
O6       O      0.078690000000     0.555840000000     0.607450000000    -0.564886   
O7       O      0.050040000000     0.440050000000     0.725400000000    -0.567183   
O8       O      0.236350000000     0.543680000000     0.632590000000    -0.557912   
O9       O      0.138750000000     0.771440000000     0.569250000000    -0.561822   
O10      O      0.045600000000     0.974010000000     0.694200000000    -0.567685   
O11      O      0.077050000000     0.962700000000     0.552150000000    -0.568669   
O12      O      0.107500000000     0.780210000000     0.711700000000    -0.577589   
O13      O      0.228560000000     0.848300000000     0.729770000000    -0.558942   
O14      O      0.195380000000     0.037270000000     0.573010000000    -0.570588   
O15      O      0.165740000000     0.043090000000     0.715470000000    -0.561377   
O16      O      0.258110000000     0.844390000000     0.587970000000    -0.568604   
O17      O      0.744540000000     0.309940000000     0.700500000000    -0.562257   
O18      O      0.633890000000     0.268110000000     0.524090000000    -0.560212   
O19      O      0.774720000000     0.348420000000     0.561010000000    -0.564251   
O20      O      0.604020000000     0.224810000000     0.663570000000    -0.567231   
O21      O      0.548390000000     0.383930000000     0.677920000000    -0.558672   
O22      O      0.716940000000     0.507060000000     0.569210000000    -0.558467   
O23      O      0.572690000000     0.423470000000     0.539170000000    -0.570581   
O24      O      0.689520000000     0.470050000000     0.709670000000    -0.569229   
O25      O      0.815620000000     0.580940000000     0.184880000000    -0.562633   
O26      O      0.628520000000     0.497610000000     0.086500000000    -0.567702   
O27      O      0.688530000000     0.462480000000     0.218290000000    -0.564427   
O28      O      0.756650000000     0.614110000000     0.052540000000    -0.564573   
O29      O      0.815910000000     0.467520000000     0.012130000000    -0.573854   
O30      O      0.752430000000     0.319140000000     0.178550000000    -0.565663   
O31      O      0.689850000000     0.351240000000     0.048200000000    -0.560582   
O32      O      0.879060000000     0.438000000000     0.143630000000    -0.565606   
O33      O      0.210250000000     0.785500000000     0.052730000000    -0.553422   
O34      O      0.146720000000     0.900860000000     0.233860000000    -0.552104   
O35      O      0.086950000000     0.899510000000     0.099640000000    -0.564909   
O36      O      0.270210000000     0.783080000000     0.186910000000    -0.565696   
O37      O      0.338070000000     0.931290000000     0.164040000000    -0.55458    
O38      O      0.153470000000     0.048390000000     0.075470000000    -0.555656   
O39      O      0.214940000000     0.048090000000     0.209130000000    -0.563771   
O40      O      0.277250000000     0.934210000000     0.029290000000    -0.562935   
O41      O      0.835910000000     0.849660000000     0.133140000000    -0.56037    
O42      O      0.669120000000     0.973840000000     0.024980000000    -0.56861    
O43      O      0.824950000000     0.014630000000     0.042080000000    -0.564342   
O44      O      0.679590000000     0.811300000000     0.116520000000    -0.570983   
O45      O      0.651680000000     0.921100000000     0.207310000000    -0.572305   
O46      O      0.799510000000     0.119980000000     0.135710000000    -0.567676   
O47      O      0.643920000000     0.084850000000     0.115730000000    -0.558844   
O48      O      0.807980000000     0.955580000000     0.225990000000    -0.566338   
V1       V      0.150980000000     0.338720000000     0.611410000000     1.41987    
V2       V      0.142420000000     0.498660000000     0.681870000000     1.43255    
V3       V      0.087380000000     0.869280000000     0.631300000000     1.41541    
V4       V      0.216690000000     0.946300000000     0.652500000000     1.40325    
V5       V      0.691530000000     0.281360000000     0.611920000000     1.39752    
V6       V      0.629810000000     0.452650000000     0.624420000000     1.40208    
V7       V      0.719890000000     0.544690000000     0.137250000000     1.42733    
V8       V      0.787010000000     0.388350000000     0.094120000000     1.44188    
V9       V      0.175950000000     0.836270000000     0.144430000000     1.39476    
V10      V      0.248750000000     0.996320000000     0.118540000000     1.39515    
V11      V      0.753640000000     0.908010000000     0.075480000000     1.4143     
V12      V      0.724640000000     0.024580000000     0.174880000000     1.4254     


