data_structure

_audit_creation_method RASPA-1.0
_audit_creation_date 2023-5-22
_audit_author_name 'Poobodin Mano'

_cell_length_a    27.8441
_cell_length_b    23.4991
_cell_length_c    30.1751
_cell_angle_alpha 90
_cell_angle_beta  90
_cell_angle_gamma 90
_cell_volume      19743.9

_symmetry_cell_setting          triclinic
_symmetry_space_group_name_Hall 'P 1'
_symmetry_space_group_name_H-M  'P 1'
_symmetry_Int_Tables_number     1

_symmetry_equiv_pos_as_xyz 'x,y,z'

loop_
_atom_site_label
_atom_site_type_symbol
_atom_site_fract_x
_atom_site_fract_y
_atom_site_fract_z
_atom_site_charge
C1       C      0.950380000000     0.464870000000     0.779930000000     0.356889   
C2       C      0.012070000000     0.514680000000     0.920850000000     0.356852   
C3       C      0.870210000000     0.598670000000     0.862730000000     0.359747   
C4       C      0.871970000000     0.404180000000     0.908620000000     0.356613   
C5       C      0.111100000000     0.789310000000     0.213970000000     0.357862   
C6       C      0.236800000000     0.698130000000     0.151940000000     0.355011   
C7       C      0.080280000000     0.700460000000     0.081160000000     0.357491   
C8       C      0.179860000000     0.860050000000     0.076050000000     0.357248   
C9       C      0.313400000000     0.020290000000     0.904260000000     0.358626   
C10      C      0.446830000000     0.127530000000     0.917510000000     0.356481   
C11      C      0.461690000000     0.959800000000     0.835800000000     0.356519   
C12      C      0.370640000000     0.107900000000     0.774160000000     0.356874   
C13      C      0.690810000000     0.286650000000     0.062110000000     0.357737   
C14      C      0.643660000000     0.205450000000     0.201040000000     0.359611   
C15      C      0.632220000000     0.398320000000     0.180100000000     0.357093   
C16      C      0.527650000000     0.278140000000     0.101110000000     0.355461   
C17      C      0.425850000000     0.581780000000     0.300460000000     0.357709   
C18      C      0.552700000000     0.481820000000     0.365630000000     0.358628   
C19      C      0.525740000000     0.667350000000     0.409550000000     0.357324   
C20      C      0.412990000000     0.524280000000     0.449360000000     0.358931   
C21      C      0.703870000000     0.689470000000     0.732080000000     0.356991   
C22      C      0.793240000000     0.817440000000     0.652430000000     0.356481   
C23      C      0.629780000000     0.765780000000     0.608960000000     0.35927    
C24      C      0.661710000000     0.888350000000     0.728450000000     0.355751   
C25      C      0.790730000000     0.999520000000     0.329560000000     0.359607   
C26      C      0.859190000000     0.881230000000     0.439560000000     0.356109   
C27      C      0.903670000000     0.849970000000     0.297150000000     0.359746   
C28      C      0.955840000000     0.016930000000     0.365100000000     0.355082   
C29      C      0.093030000000     0.321050000000     0.605320000000     0.356883   
C30      C      0.196110000000     0.151770000000     0.624740000000     0.35577    
C31      C      0.129970000000     0.189000000000     0.492600000000     0.355395   
C32      C      0.242940000000     0.326640000000     0.560380000000     0.355402   
C33      C      0.062900000000     0.143360000000     0.452950000000     0.0150809  
C34      C      0.054070000000     0.108350000000     0.410830000000    -0.108616   
C35      C      0.001950000000     0.087370000000     0.408560000000     0.0147281  
C36      C      0.857380000000     0.881280000000     0.521260000000     0.0161588  
C37      C      0.845200000000     0.840530000000     0.559290000000    -0.108066   
C38      C      0.850310000000     0.869760000000     0.604430000000     0.0191055  
C39      C      0.295760000000     0.386030000000     0.513380000000     0.0149255  
C40      C      0.330900000000     0.435730000000     0.519380000000    -0.108124   
C41      C      0.349630000000     0.458050000000     0.474850000000     0.0151173  
C42      C      0.614410000000     0.737130000000     0.531570000000     0.0154677  
C43      C      0.572040000000     0.732600000000     0.499220000000    -0.10727    
C44      C      0.589110000000     0.717590000000     0.452370000000     0.0174685  
C45      C      0.700670000000     0.140940000000     0.238290000000     0.0157311  
C46      C      0.700680000000     0.096110000000     0.275190000000    -0.109056   
C47      C      0.750850000000     0.070670000000     0.282000000000     0.0157643  
C48      C      0.627510000000     0.452960000000     0.327320000000     0.0203995  
C49      C      0.611490000000     0.444790000000     0.279100000000    -0.108134   
C50      C      0.653100000000     0.454780000000     0.246760000000     0.0202289  
C51      C      0.337210000000     0.104060000000     0.697780000000     0.0164261  
C52      C      0.284130000000     0.120250000000     0.693340000000    -0.105508   
C53      C      0.260170000000     0.089180000000     0.654540000000     0.0174823  
C54      C      0.623000000000     0.929730000000     0.795010000000     0.0179746  
C55      C      0.568470000000     0.925560000000     0.789020000000    -0.105379   
C56      C      0.543110000000     0.916820000000     0.833550000000     0.0171435  
C57      C      0.464420000000     0.220020000000     0.065070000000     0.0188055  
C58      C      0.477960000000     0.217700000000     0.015850000000    -0.107933   
C59      C      0.457340000000     0.164420000000     0.993500000000     0.0158643  
C60      C      0.959380000000     0.772490000000     0.276430000000     0.0196215  
C61      C      0.004280000000     0.803500000000     0.259670000000    -0.106531   
C62      C      0.050260000000     0.771590000000     0.272250000000     0.0187353  
C63      C      0.272200000000     0.953390000000     0.954620000000     0.01519    
C64      C      0.231600000000     0.956310000000     0.988850000000    -0.108521   
C65      C      0.230310000000     0.902440000000     0.017530000000     0.0152962  
C66      C      0.296960000000     0.668810000000     0.207360000000     0.0153503  
C67      C      0.339610000000     0.627870000000     0.211450000000    -0.108916   
C68      C      0.360770000000     0.628490000000     0.258400000000     0.0156626  
C69      C      0.045320000000     0.356390000000     0.668400000000     0.0152688  
C70      C      0.009060000000     0.403720000000     0.678560000000    -0.108628   
C71      C      0.995690000000     0.404450000000     0.727830000000     0.015393   
C72      C      0.760140000000     0.326930000000     0.022100000000     0.0153967  
C73      C      0.785030000000     0.320490000000     0.977060000000    -0.108853   
C74      C      0.823650000000     0.366210000000     0.970510000000     0.0154471  
C75      C      0.721310000000     0.642120000000     0.803610000000     0.0194051  
C76      C      0.776150000000     0.643550000000     0.808140000000    -0.106931   
C77      C      0.791500000000     0.647300000000     0.856830000000     0.0194227  
C78      C      0.052340000000     0.533240000000     0.992690000000     0.0177121  
C79      C      0.049180000000     0.597250000000     0.001840000000    -0.105657   
C80      C      0.046990000000     0.609830000000     0.051600000000     0.0157724  
Cd1      Cd     0.926140000000     0.495910000000     0.869230000000     0.508606   
Cd2      Cd     0.152490000000     0.763090000000     0.129230000000     0.508908   
Cd3      Cd     0.398160000000     0.053410000000     0.856220000000     0.508733   
Cd4      Cd     0.623890000000     0.290880000000     0.135180000000     0.508537   
Cd5      Cd     0.478260000000     0.564170000000     0.381820000000     0.50911    
Cd6      Cd     0.696400000000     0.791150000000     0.679540000000     0.508139   
Cd7      Cd     0.876080000000     0.939160000000     0.357040000000     0.509081   
Cd8      Cd     0.165640000000     0.246260000000     0.570440000000     0.509574   
H1       H      0.053500000000     0.117700000000     0.482720000000     0.0450093  
H2       H      0.039230000000     0.181500000000     0.453050000000     0.0434481  
H3       H      0.017960000000     0.055420000000     0.342370000000     0.106142   
H4       H      0.061980000000     0.135050000000     0.381290000000     0.060602   
H5       H      0.078610000000     0.071010000000     0.410670000000     0.0632843  
H6       H      0.977150000000     0.124440000000     0.407590000000     0.0411965  
H7       H      0.993220000000     0.062350000000     0.438830000000     0.0467902  
H8       H      0.136750000000     0.154010000000     0.429920000000     0.106825   
H9       H      0.895130000000     0.896270000000     0.524440000000     0.0424904  
H10      H      0.833880000000     0.919530000000     0.522830000000     0.046462   
H11      H      0.867320000000     0.809380000000     0.656220000000     0.106827   
H12      H      0.807680000000     0.825190000000     0.555120000000     0.0755293  
H13      H      0.869700000000     0.803190000000     0.557920000000     0.0634359  
H14      H      0.825780000000     0.907110000000     0.605950000000     0.0461549  
H15      H      0.887960000000     0.884670000000     0.608510000000     0.0321317  
H16      H      0.839980000000     0.810990000000     0.476790000000     0.107408   
H17      H      0.313610000000     0.350700000000     0.495230000000     0.0439439  
H18      H      0.264430000000     0.399860000000     0.493180000000     0.0455049  
H19      H      0.383610000000     0.526490000000     0.512210000000     0.10633    
H20      H      0.312350000000     0.470780000000     0.537290000000     0.0612947  
H21      H      0.361920000000     0.421340000000     0.539740000000     0.0627765  
H22      H      0.319050000000     0.472980000000     0.454200000000     0.0415652  
H23      H      0.367830000000     0.423180000000     0.456410000000     0.0473151  
H24      H      0.295860000000     0.379130000000     0.585440000000     0.106079   
H25      H      0.640980000000     0.768660000000     0.519080000000     0.0437697  
H26      H      0.633180000000     0.695450000000     0.533890000000     0.0450086  
H27      H      0.535950000000     0.754730000000     0.408950000000     0.10747    
H28      H      0.546760000000     0.699260000000     0.511070000000     0.0714445  
H29      H      0.552670000000     0.773990000000     0.498280000000     0.0634778  
H30      H      0.608270000000     0.676050000000     0.452910000000     0.0471435  
H31      H      0.614450000000     0.751120000000     0.440990000000     0.0343818  
H32      H      0.561550000000     0.757740000000     0.582530000000     0.107588   
H33      H      0.712680000000     0.121450000000     0.206570000000     0.0443002  
H34      H      0.726490000000     0.175540000000     0.246420000000     0.0433776  
H35      H      0.718060000000     0.017000000000     0.332680000000     0.106571   
H36      H      0.688520000000     0.116120000000     0.306650000000     0.0615354  
H37      H      0.675150000000     0.061530000000     0.266340000000     0.0622075  
H38      H      0.776760000000     0.104810000000     0.291020000000     0.0434832  
H39      H      0.763790000000     0.051090000000     0.250630000000     0.044589   
H40      H      0.624480000000     0.152520000000     0.252840000000     0.106482   
H41      H      0.641260000000     0.497050000000     0.331840000000     0.0436345  
H42      H      0.656830000000     0.422320000000     0.334880000000     0.0327463  
H43      H      0.627110000000     0.486250000000     0.183810000000     0.109759   
H44      H      0.597520000000     0.400790000000     0.274840000000     0.0772278  
H45      H      0.582010000000     0.475120000000     0.271330000000     0.0798769  
H46      H      0.682240000000     0.423540000000     0.253550000000     0.0435713  
H47      H      0.667360000000     0.498530000000     0.251710000000     0.033646   
H48      H      0.584830000000     0.402660000000     0.372680000000     0.108863   
H49      H      0.356240000000     0.117730000000     0.667190000000     0.0364377  
H50      H      0.340770000000     0.057100000000     0.701160000000     0.0472065  
H51      H      0.184230000000     0.086050000000     0.669310000000     0.108262   
H52      H      0.265020000000     0.109240000000     0.724560000000     0.0706124  
H53      H      0.281240000000     0.166990000000     0.688140000000     0.0730097  
H54      H      0.261020000000     0.042650000000     0.661220000000     0.0344964  
H55      H      0.280260000000     0.097940000000     0.623400000000     0.0457463  
H56      H      0.363920000000     0.177780000000     0.732740000000     0.109121   
H57      H      0.636320000000     0.891730000000     0.813290000000     0.0452433  
H58      H      0.631280000000     0.968470000000     0.814740000000     0.0343896  
H59      H      0.475940000000     0.877450000000     0.814940000000     0.10916    
H60      H      0.555120000000     0.965350000000     0.773300000000     0.0707481  
H61      H      0.559850000000     0.889230000000     0.766770000000     0.0733658  
H62      H      0.553480000000     0.951280000000     0.856970000000     0.0464998  
H63      H      0.554820000000     0.875310000000     0.847580000000     0.0358375  
H64      H      0.652530000000     0.974950000000     0.738830000000     0.108267   
H65      H      0.479630000000     0.182290000000     0.082400000000     0.0459839  
H66      H      0.424630000000     0.219110000000     0.068170000000     0.0324977  
H67      H      0.496770000000     0.189210000000     0.934070000000     0.108505   
H68      H      0.463680000000     0.256170000000     0.998890000000     0.0652623  
H69      H      0.517740000000     0.217550000000     0.012530000000     0.0734252  
H70      H      0.417640000000     0.163360000000     0.997720000000     0.0446487  
H71      H      0.472100000000     0.125650000000     0.009660000000     0.0431045  
H72      H      0.459200000000     0.307570000000     0.086620000000     0.107431   
H73      H      0.963330000000     0.762910000000     0.312370000000     0.0444004  
H74      H      0.955420000000     0.731780000000     0.257990000000     0.0337601  
H75      H      0.106950000000     0.834500000000     0.272910000000     0.10939    
H76      H      0.002090000000     0.807670000000     0.223000000000     0.0738737  
H77      H      0.005810000000     0.846990000000     0.274150000000     0.0771141  
H78      H      0.048520000000     0.727150000000     0.259600000000     0.0452029  
H79      H      0.053240000000     0.770510000000     0.308990000000     0.0351755  
H80      H      0.895970000000     0.800050000000     0.240800000000     0.109049   
H81      H      0.266560000000     0.916160000000     0.932480000000     0.0416821  
H82      H      0.307190000000     0.947170000000     0.971800000000     0.0474075  
H83      H      0.173670000000     0.943830000000     0.055760000000     0.107168   
H84      H      0.237230000000     0.994080000000     0.010460000000     0.0628852  
H85      H      0.196610000000     0.961060000000     0.971470000000     0.0615917  
H86      H      0.265310000000     0.896850000000     0.034760000000     0.0428422  
H87      H      0.224790000000     0.864370000000     0.996200000000     0.0452354  
H88      H      0.243040000000     0.030610000000     0.924920000000     0.106389   
H89      H      0.308770000000     0.713020000000     0.214800000000     0.0441919  
H90      H      0.268850000000     0.657520000000     0.232060000000     0.0439977  
H91      H      0.413620000000     0.567670000000     0.233800000000     0.106741   
H92      H      0.327470000000     0.583980000000     0.203390000000     0.062244   
H93      H      0.367860000000     0.640500000000     0.187320000000     0.061931   
H94      H      0.332870000000     0.615790000000     0.282880000000     0.0441533  
H95      H      0.372560000000     0.672300000000     0.267180000000     0.0444982  
H96      H      0.291400000000     0.640960000000     0.138480000000     0.106747   
H97      H      0.029660000000     0.314260000000     0.676980000000     0.0444745  
H98      H      0.078080000000     0.361990000000     0.689080000000     0.0456073  
H99      H      0.946250000000     0.473540000000     0.711800000000     0.106313   
H100     H      0.024980000000     0.445510000000     0.669400000000     0.062839   
H101     H      0.976090000000     0.396940000000     0.658440000000     0.061069   
H102     H      0.028630000000     0.409480000000     0.748360000000     0.0471046  
H103     H      0.978890000000     0.363240000000     0.737250000000     0.0439131  
H104     H      0.041800000000     0.384350000000     0.599490000000     0.106201   
H105     H      0.744720000000     0.370440000000     0.025290000000     0.0452318  
H106     H      0.786800000000     0.321640000000     0.049240000000     0.0423548  
H107     H      0.842550000000     0.323330000000     0.908840000000     0.106203   
H108     H      0.801830000000     0.277630000000     0.974930000000     0.060216   
H109     H      0.757780000000     0.324390000000     0.950280000000     0.0634938  
H110     H      0.851890000000     0.361590000000     0.996320000000     0.0408909  
H111     H      0.807500000000     0.409250000000     0.974450000000     0.0463242  
H112     H      0.718270000000     0.251720000000     0.004500000000     0.105974   
H113     H      0.705510000000     0.679910000000     0.820400000000     0.0446562  
H114     H      0.707470000000     0.602910000000     0.819810000000     0.0340409  
H115     H      0.861760000000     0.686340000000     0.860470000000     0.108774   
H116     H      0.791440000000     0.604370000000     0.793010000000     0.0760654  
H117     H      0.790670000000     0.680990000000     0.790010000000     0.0774354  
H118     H      0.776010000000     0.610900000000     0.875600000000     0.0444478  
H119     H      0.777560000000     0.687690000000     0.871080000000     0.0341757  
H120     H      0.701370000000     0.602070000000     0.741690000000     0.108986   
H121     H      0.021530000000     0.511060000000     0.008620000000     0.0455392  
H122     H      0.086360000000     0.516720000000     0.007110000000     0.0342287  
H123     H      0.016720000000     0.694210000000     0.045850000000     0.107959   
H124     H      0.081190000000     0.618650000000     0.987370000000     0.0688173  
H125     H      0.016520000000     0.614810000000     0.985590000000     0.0716677  
H126     H      0.078030000000     0.589620000000     0.068660000000     0.0477344  
H127     H      0.013310000000     0.591180000000     0.065050000000     0.0371977  
H128     H      0.085750000000     0.523470000000     0.928460000000     0.108386   
N1       N      0.993930000000     0.052550000000     0.368930000000    -0.204617   
N2       N      0.113090000000     0.161780000000     0.456170000000    -0.204523   
N3       N      0.838890000000     0.829570000000     0.639940000000    -0.206117   
N4       N      0.851140000000     0.853470000000     0.478190000000    -0.204646   
N5       N      0.382970000000     0.505580000000     0.481600000000    -0.20483    
N6       N      0.279150000000     0.364860000000     0.556430000000    -0.204388   
N7       N      0.548100000000     0.716100000000     0.421980000000    -0.205259   
N8       N      0.598300000000     0.754180000000     0.575880000000    -0.204863   
N9       N      0.750380000000     0.027370000000     0.316940000000    -0.205424   
N10      N      0.652720000000     0.165500000000     0.232320000000    -0.205377   
N11      N      0.636200000000     0.449180000000     0.201030000000    -0.205483   
N12      N      0.587200000000     0.442480000000     0.357380000000    -0.205894   
N13      N      0.210100000000     0.107510000000     0.650560000000    -0.205425   
N14      N      0.358320000000     0.133940000000     0.735680000000    -0.2051     
N15      N      0.491050000000     0.915200000000     0.826860000000    -0.205403   
N16      N      0.646480000000     0.934290000000     0.751750000000    -0.205625   
N17      N      0.469450000000     0.162910000000     0.946220000000    -0.204302   
N18      N      0.482430000000     0.272670000000     0.084960000000    -0.20549    
N19      N      0.091960000000     0.801550000000     0.254160000000    -0.205458   
N20      N      0.916800000000     0.807760000000     0.269000000000    -0.205886   
N21      N      0.192050000000     0.905520000000     0.050800000000    -0.204946   
N22      N      0.273700000000     0.005070000000     0.927430000000    -0.204684   
N23      N      0.401830000000     0.589760000000     0.261880000000    -0.204816   
N24      N      0.276110000000     0.667070000000     0.162760000000    -0.204517   
N25      N      0.962050000000     0.450690000000     0.737750000000    -0.204198   
N26      N      0.058850000000     0.356470000000     0.621480000000    -0.204724   
N27      N      0.846060000000     0.361250000000     0.926740000000    -0.205008   
N28      N      0.721920000000     0.284650000000     0.027600000000    -0.205293   
N29      N      0.843970000000     0.647170000000     0.860040000000    -0.206187   
N30      N      0.707830000000     0.641430000000     0.756710000000    -0.205511   
N31      N      0.045820000000     0.671480000000     0.058770000000    -0.205043   
N32      N      0.052650000000     0.523180000000     0.944830000000    -0.205661   
O1       O      0.013720000000     0.507300000000     0.879430000000    -0.250308   
O2       O      0.878460000000     0.450870000000     0.928570000000    -0.250467   
O3       O      0.967730000000     0.438670000000     0.812940000000    -0.243839   
O4       O      0.915470000000     0.600160000000     0.866140000000    -0.25369    
O5       O      0.850830000000     0.549960000000     0.862000000000    -0.254532   
O6       O      0.921610000000     0.505270000000     0.788030000000    -0.252574   
O7       O      0.970930000000     0.513800000000     0.938560000000    -0.253388   
O8       O      0.890660000000     0.399420000000     0.870660000000    -0.252249   
O9       O      0.216590000000     0.730820000000     0.179540000000    -0.252016   
O10      O      0.146830000000     0.863260000000     0.104630000000    -0.249184   
O11      O      0.146470000000     0.817110000000     0.198950000000    -0.244786   
O12      O      0.116060000000     0.675850000000     0.098510000000    -0.250511   
O13      O      0.077900000000     0.753850000000     0.085750000000    -0.252837   
O14      O      0.094660000000     0.749810000000     0.189790000000    -0.25528    
O15      O      0.218450000000     0.695510000000     0.113640000000    -0.245483   
O16      O      0.200620000000     0.812460000000     0.072150000000    -0.254115   
O17      O      0.413900000000     0.094020000000     0.929980000000    -0.253252   
O18      O      0.365370000000     0.054990000000     0.780020000000    -0.253624   
O19      O      0.351530000000     0.990990000000     0.905300000000    -0.249027   
O20      O      0.416830000000     0.956120000000     0.830320000000    -0.248126   
O21      O      0.477480000000     0.006740000000     0.850210000000    -0.254469   
O22      O      0.314040000000     0.064860000000     0.880710000000    -0.252918   
O23      O      0.457670000000     0.126720000000     0.876790000000    -0.243436   
O24      O      0.388230000000     0.135760000000     0.806080000000    -0.248711   
O25      O      0.675980000000     0.223280000000     0.175010000000    -0.253484   
O26      O      0.541840000000     0.324320000000     0.118110000000    -0.249419   
O27      O      0.693300000000     0.324770000000     0.091570000000    -0.253374   
O28      O      0.642230000000     0.351860000000     0.199270000000    -0.254856   
O29      O      0.618180000000     0.395290000000     0.140280000000    -0.243955   
O30      O      0.657690000000     0.250320000000     0.066250000000    -0.252766   
O31      O      0.602240000000     0.226820000000     0.196680000000    -0.252434   
O32      O      0.557640000000     0.237750000000     0.099830000000    -0.250609   
O33      O      0.553400000000     0.530610000000     0.347880000000    -0.252094   
O34      O      0.441700000000     0.564970000000     0.456280000000    -0.254046   
O35      O      0.461580000000     0.548730000000     0.302530000000    -0.253047   
O36      O      0.538340000000     0.619150000000     0.424180000000    -0.251488   
O37      O      0.491140000000     0.668120000000     0.382400000000    -0.250415   
O38      O      0.413920000000     0.606840000000     0.335920000000    -0.249204   
O39      O      0.517900000000     0.471010000000     0.391230000000    -0.250622   
O40      O      0.413940000000     0.502000000000     0.411200000000    -0.250793   
O41      O      0.784710000000     0.782560000000     0.683290000000    -0.255444   
O42      O      0.683720000000     0.894000000000     0.692090000000    -0.251814   
O43      O      0.711570000000     0.738300000000     0.748350000000    -0.248434   
O44      O      0.674730000000     0.761900000000     0.603540000000    -0.251859   
O45      O      0.615410000000     0.781200000000     0.646870000000    -0.254598   
O46      O      0.692560000000     0.687370000000     0.691490000000    -0.25178    
O47      O      0.757260000000     0.840070000000     0.633870000000    -0.24987    
O48      O      0.655040000000     0.838030000000     0.741990000000    -0.250901   
O49      O      0.872880000000     0.932600000000     0.438540000000    -0.246338   
O50      O      0.949900000000     0.986800000000     0.330840000000    -0.252315   
O51      O      0.831180000000     0.009580000000     0.312200000000    -0.25338    
O52      O      0.927760000000     0.861370000000     0.331620000000    -0.253499   
O53      O      0.866710000000     0.879940000000     0.290000000000    -0.250658   
O54      O      0.789570000000     0.961930000000     0.359440000000    -0.254304   
O55      O      0.853240000000     0.856690000000     0.402680000000    -0.250542   
O56      O      0.924800000000     0.011820000000     0.395470000000    -0.248111   
O57      O      0.152720000000     0.167460000000     0.623330000000    -0.248763   
O58      O      0.221070000000     0.306760000000     0.526980000000    -0.246448   
O59      O      0.114990000000     0.285940000000     0.629850000000    -0.248235   
O60      O      0.103230000000     0.200090000000     0.525360000000    -0.251973   
O61      O      0.173390000000     0.204410000000     0.495430000000    -0.247966   
O62      O      0.104460000000     0.321700000000     0.564770000000    -0.252842   
O63      O      0.225520000000     0.179480000000     0.601180000000    -0.254151   
O64      O      0.229380000000     0.309300000000     0.598030000000    -0.252911   


