data_structure

_audit_creation_method RASPA-1.0
_audit_creation_date 2023-5-22
_audit_author_name 'Poobodin Mano'

_cell_length_a    32.9035
_cell_length_b    32.8569
_cell_length_c    29.322
_cell_angle_alpha 90
_cell_angle_beta  90
_cell_angle_gamma 90
_cell_volume      31700.2

_symmetry_cell_setting          triclinic
_symmetry_space_group_name_Hall 'P 1'
_symmetry_space_group_name_H-M  'P 1'
_symmetry_Int_Tables_number     1

_symmetry_equiv_pos_as_xyz 'x,y,z'

loop_
_atom_site_label
_atom_site_type_symbol
_atom_site_fract_x
_atom_site_fract_y
_atom_site_fract_z
_atom_site_charge
C1       C      0.905030000000     0.429930000000     0.037230000000     0.354751   
C2       C      0.826970000000     0.314310000000     0.967900000000     0.354502   
C3       C      0.843230000000     0.436350000000     0.897180000000     0.35522    
C4       C      0.958080000000     0.341750000000     0.934650000000     0.354877   
C5       C      0.102170000000     0.558510000000     0.084060000000     0.354994   
C6       C      0.174710000000     0.575530000000     0.227940000000     0.355503   
C7       C      0.204620000000     0.658820000000     0.113760000000     0.354788   
C8       C      0.067500000000     0.662740000000     0.172670000000     0.355042   
C9       C      0.339930000000     0.872300000000     0.028650000000     0.356817   
C10      C      0.344440000000     0.961420000000     0.896460000000     0.357565   
C11      C      0.426780000000     0.989190000000     0.016410000000     0.354896   
C12      C      0.447520000000     0.864810000000     0.935590000000     0.355171   
C13      C      0.694160000000     0.066940000000     0.203370000000     0.359409   
C14      C      0.615420000000     0.137170000000     0.091190000000     0.355166   
C15      C      0.600610000000     0.170330000000     0.245090000000     0.357677   
C16      C      0.719910000000     0.204560000000     0.171160000000     0.354353   
C17      C      0.434630000000     0.336020000000     0.382260000000     0.357828   
C18      C      0.400210000000     0.425920000000     0.503490000000     0.356819   
C19      C      0.308780000000     0.394300000000     0.382060000000     0.356352   
C20      C      0.339960000000     0.299860000000     0.499950000000     0.356785   
C21      C      0.648180000000     0.576620000000     0.772880000000     0.355108   
C22      C      0.551540000000     0.687830000000     0.748850000000     0.354779   
C23      C      0.667100000000     0.691690000000     0.673820000000     0.354906   
C24      C      0.577300000000     0.577860000000     0.643810000000     0.354095   
C25      C      0.912030000000     0.778940000000     0.369730000000     0.359371   
C26      C      0.855550000000     0.910060000000     0.356120000000     0.354392   
C27      C      0.803080000000     0.819000000000     0.465310000000     0.35523    
C28      C      0.929300000000     0.880190000000     0.485920000000     0.358382   
C29      C      0.067000000000     0.195300000000     0.730820000000     0.358018   
C30      C      0.035070000000     0.073510000000     0.648420000000     0.358919   
C31      C      0.153640000000     0.147150000000     0.618350000000     0.35581    
C32      C      0.140270000000     0.072050000000     0.754750000000     0.355224   
C33      C      0.983960000000     0.952130000000     0.563810000000    -0.0793166  
C34      C      0.975060000000     0.993210000000     0.586640000000    -0.07945    
C35      C      0.013330000000     0.010900000000     0.608960000000     0.00579261 
C36      C      0.945890000000     0.934740000000     0.540780000000     0.00571424 
C37      C      0.730560000000     0.770370000000     0.547090000000    -0.0794265  
C38      C      0.730510000000     0.757950000000     0.597530000000    -0.0791795  
C39      C      0.693300000000     0.731820000000     0.609050000000     0.0052664  
C40      C      0.768370000000     0.795500000000     0.535210000000     0.00557248 
C41      C      0.231780000000     0.204310000000     0.552220000000    -0.0793038  
C42      C      0.272820000000     0.225180000000     0.560810000000    -0.0792041  
C43      C      0.285590000000     0.251200000000     0.519800000000     0.00515498 
C44      C      0.217820000000     0.179930000000     0.593990000000     0.00552144 
C45      C      0.510060000000     0.510250000000     0.572860000000    -0.0791884  
C46      C      0.465540000000     0.496250000000     0.573240000000    -0.0795281  
C47      C      0.456550000000     0.467960000000     0.532830000000     0.00540455 
C48      C      0.519630000000     0.538010000000     0.613550000000     0.00517697 
C49      C      0.799020000000     0.984580000000     0.283880000000    -0.0789565  
C50      C      0.759010000000     0.986010000000     0.257030000000    -0.0796832  
C51      C      0.749360000000     0.029510000000     0.241580000000     0.00587271 
C52      C      0.808090000000     0.941500000000     0.301120000000     0.00512153 
C53      C      0.508850000000     0.273920000000     0.314370000000    -0.0791277  
C54      C      0.527560000000     0.231190000000     0.316410000000    -0.0796395  
C55      C      0.554590000000     0.223220000000     0.274740000000     0.00579905 
C56      C      0.481200000000     0.282100000000     0.355470000000     0.00547947 
C57      C      0.264940000000     0.011700000000     0.823950000000    -0.07901    
C58      C      0.218420000000     0.015060000000     0.823260000000    -0.0798269  
C59      C      0.204180000000     0.044690000000     0.786120000000     0.00562622 
C60      C      0.279540000000     0.982350000000     0.861170000000     0.00519153 
C61      C      0.501520000000     0.784390000000     0.867600000000    -0.0795051  
C62      C      0.497950000000     0.766410000000     0.819450000000    -0.0791973  
C63      C      0.527110000000     0.730490000000     0.812620000000     0.00507079 
C64      C      0.472230000000     0.820290000000     0.873860000000     0.00530492 
C65      C      0.543110000000     0.081840000000     0.045600000000    -0.0788015  
C66      C      0.497240000000     0.073710000000     0.042940000000    -0.0779267  
C67      C      0.488050000000     0.028050000000     0.039630000000     0.00452324 
C68      C      0.552040000000     0.127620000000     0.046790000000     0.00862254 
C69      C      0.968420000000     0.713200000000     0.286030000000    -0.0796183  
C70      C      0.992860000000     0.719670000000     0.242050000000    -0.0787757  
C71      C      0.010330000000     0.679430000000     0.224310000000     0.00505649 
C72      C      0.951660000000     0.753560000000     0.304300000000     0.00582903 
C73      C      0.269510000000     0.743030000000     0.069670000000    -0.0785795  
C74      C      0.279920000000     0.787230000000     0.081930000000    -0.0799155  
C75      C      0.304190000000     0.807760000000     0.043640000000     0.00589464 
C76      C      0.243730000000     0.722880000000     0.106930000000     0.00499111 
C77      C      0.242150000000     0.460660000000     0.309800000000    -0.0791998  
C78      C      0.228580000000     0.505340000000     0.309150000000    -0.0795136  
C79      C      0.205160000000     0.515480000000     0.265350000000     0.00546484 
C80      C      0.266470000000     0.450820000000     0.353070000000     0.00535134 
C81      C      0.016470000000     0.278090000000     0.861930000000    -0.0776888  
C82      C      0.031650000000     0.275880000000     0.812490000000    -0.079827   
C83      C      0.039890000000     0.231820000000     0.797900000000     0.0057528  
C84      C      0.010020000000     0.322290000000     0.877000000000     0.00510471 
C85      C      0.759510000000     0.256210000000     0.089510000000    -0.0781056  
C86      C      0.790070000000     0.259720000000     0.050170000000    -0.0776637  
C87      C      0.770600000000     0.279700000000     0.008300000000     0.00856396 
C88      C      0.778590000000     0.235530000000     0.131180000000     0.00898157 
C89      C      0.767540000000     0.500030000000     0.832860000000    -0.0796844  
C90      C      0.722600000000     0.511840000000     0.837790000000    -0.0791552  
C91      C      0.708730000000     0.538510000000     0.797780000000     0.00506116 
C92      C      0.781770000000     0.473450000000     0.872780000000     0.00555603 
C93      C      0.986880000000     0.475120000000     0.070870000000    -0.0779711  
C94      C      0.015360000000     0.511670000000     0.064350000000    -0.0776403  
C95      C      0.060030000000     0.498390000000     0.064120000000     0.00778327 
C96      C      0.942160000000     0.488250000000     0.070870000000     0.00825202 
Cd1      Cd     0.883050000000     0.381140000000     0.959320000000     0.50794    
Cd2      Cd     0.137030000000     0.613460000000     0.149950000000     0.508532   
Cd3      Cd     0.388800000000     0.922310000000     0.969150000000     0.508592   
Cd4      Cd     0.657590000000     0.143270000000     0.177270000000     0.507519   
Cd5      Cd     0.371000000000     0.363840000000     0.442240000000     0.508615   
Cd6      Cd     0.610760000000     0.633060000000     0.710380000000     0.508598   
Cd7      Cd     0.875520000000     0.845750000000     0.418910000000     0.508384   
Cd8      Cd     0.098330000000     0.122130000000     0.689040000000     0.508353   
H1       H      0.933250000000     0.957340000000     0.516300000000     0.0470414  
H2       H      0.922090000000     0.928740000000     0.566860000000     0.0419027  
H3       H      0.024570000000     0.989880000000     0.635910000000     0.0435014  
H4       H      0.037970000000     0.013910000000     0.583180000000     0.0459436  
H5       H      0.951170000000     0.989170000000     0.613100000000     0.0508859  
H6       H      0.963700000000     0.015050000000     0.560600000000     0.0525406  
H7       H      0.975580000000     0.062470000000     0.629210000000     0.105566   
H8       H      0.008090000000     0.956220000000     0.537620000000     0.0532149  
H9       H      0.995050000000     0.930150000000     0.589850000000     0.0504501  
H10      H      0.982460000000     0.881550000000     0.523540000000     0.105407   
H11      H      0.796310000000     0.778190000000     0.544250000000     0.0471517  
H12      H      0.768550000000     0.824100000000     0.555500000000     0.0410453  
H13      H      0.664980000000     0.749330000000     0.602410000000     0.0424128  
H14      H      0.692540000000     0.704390000000     0.586780000000     0.0469098  
H15      H      0.730310000000     0.785740000000     0.619210000000     0.0499653  
H16      H      0.758510000000     0.740250000000     0.605200000000     0.0527166  
H17      H      0.715300000000     0.731780000000     0.679260000000     0.10467    
H18      H      0.730100000000     0.742580000000     0.525420000000     0.0535232  
H19      H      0.702880000000     0.788610000000     0.539580000000     0.0501391  
H20      H      0.742200000000     0.803530000000     0.467510000000     0.105136   
H21      H      0.214620000000     0.200580000000     0.623860000000     0.0477662  
H22      H      0.241140000000     0.156710000000     0.602690000000     0.0402312  
H23      H      0.287030000000     0.231970000000     0.488630000000     0.0424437  
H24      H      0.262510000000     0.275320000000     0.513520000000     0.0468655  
H25      H      0.296380000000     0.201580000000     0.567230000000     0.0497907  
H26      H      0.270590000000     0.245050000000     0.591420000000     0.0526401  
H27      H      0.344220000000     0.259010000000     0.553420000000     0.104767   
H28      H      0.208370000000     0.227670000000     0.544180000000     0.0540194  
H29      H      0.234660000000     0.183490000000     0.522480000000     0.0500396  
H30      H      0.171650000000     0.151940000000     0.551020000000     0.105008   
H31      H      0.514410000000     0.521350000000     0.646060000000     0.0441943  
H32      H      0.498900000000     0.564770000000     0.613470000000     0.0453734  
H33      H      0.463210000000     0.483920000000     0.500220000000     0.0433473  
H34      H      0.476700000000     0.440780000000     0.534360000000     0.0457555  
H35      H      0.445280000000     0.523290000000     0.571260000000     0.0512289  
H36      H      0.459070000000     0.479750000000     0.605560000000     0.0522202  
H37      H      0.393230000000     0.468350000000     0.555070000000     0.105283   
H38      H      0.530380000000     0.483210000000     0.574190000000     0.0512596  
H39      H      0.516250000000     0.527100000000     0.540690000000     0.051518   
H40      H      0.580800000000     0.542930000000     0.585320000000     0.104935   
H41      H      0.810680000000     0.920320000000     0.271680000000     0.0412282  
H42      H      0.782600000000     0.930600000000     0.322890000000     0.0480023  
H43      H      0.747020000000     0.049890000000     0.271790000000     0.046396   
H44      H      0.774490000000     0.041320000000     0.219910000000     0.0421362  
H45      H      0.733740000000     0.974790000000     0.278870000000     0.0529902  
H46      H      0.761440000000     0.965960000000     0.226580000000     0.0504358  
H47      H      0.697430000000     0.004050000000     0.205040000000     0.105022   
H48      H      0.824340000000     0.994880000000     0.261550000000     0.0498815  
H49      H      0.797070000000     0.005470000000     0.313670000000     0.0532036  
H50      H      0.867680000000     0.963730000000     0.321920000000     0.104815   
H51      H      0.498750000000     0.278670000000     0.387660000000     0.0429863  
H52      H      0.456070000000     0.259450000000     0.356350000000     0.0454739  
H53      H      0.536120000000     0.224930000000     0.243020000000     0.0436378  
H54      H      0.578460000000     0.247120000000     0.272240000000     0.0452685  
H55      H      0.502950000000     0.207990000000     0.317440000000     0.0513201  
H56      H      0.546170000000     0.228300000000     0.347920000000     0.0517117  
H57      H      0.567960000000     0.163980000000     0.305000000000     0.105169   
H58      H      0.533610000000     0.296980000000     0.313830000000     0.0507884  
H59      H      0.490690000000     0.277100000000     0.282560000000     0.0517324  
H60      H      0.475550000000     0.344090000000     0.329590000000     0.104929   
H61      H      0.267370000000     0.951310000000     0.854620000000     0.0428352  
H62      H      0.267850000000     0.992260000000     0.895020000000     0.0456474  
H63      H      0.217700000000     0.075280000000     0.791990000000     0.0436886  
H64      H      0.214860000000     0.034100000000     0.752120000000     0.0438831  
H65      H      0.207530000000     0.026060000000     0.856990000000     0.0515274  
H66      H      0.205000000000     0.984550000000     0.816670000000     0.0513168  
H67      H      0.142380000000     0.032280000000     0.809410000000     0.10498    
H68      H      0.275830000000     0.000660000000     0.790230000000     0.0502501  
H69      H      0.278290000000     0.042290000000     0.830350000000     0.0514439  
H70      H      0.340950000000     0.994350000000     0.836540000000     0.1044     
H71      H      0.440510000000     0.810280000000     0.866860000000     0.0458316  
H72      H      0.479580000000     0.844720000000     0.848930000000     0.0431799  
H73      H      0.558910000000     0.740320000000     0.819410000000     0.0459186  
H74      H      0.519780000000     0.705840000000     0.837270000000     0.0432003  
H75      H      0.505100000000     0.790370000000     0.793880000000     0.0517765  
H76      H      0.466260000000     0.755800000000     0.813670000000     0.0507057  
H77      H      0.499830000000     0.723390000000     0.745290000000     0.104746   
H78      H      0.494260000000     0.760500000000     0.893220000000     0.0518694  
H79      H      0.533180000000     0.795060000000     0.873440000000     0.0510031  
H80      H      0.498020000000     0.827670000000     0.941960000000     0.105076   
H81      H      0.535720000000     0.141820000000     0.076000000000     0.0455934  
H82      H      0.540960000000     0.141560000000     0.014550000000     0.031959   
H83      H      0.502920000000     0.015110000000     0.008780000000     0.048794   
H84      H      0.500760000000     0.012290000000     0.069990000000     0.0427899  
H85      H      0.484390000000     0.089200000000     0.012440000000     0.0521017  
H86      H      0.482290000000     0.086360000000     0.073880000000     0.0516439  
H87      H      0.425010000000     0.040980000000     0.056330000000     0.105486   
H88      H      0.555580000000     0.067340000000     0.076900000000     0.063303   
H89      H      0.558460000000     0.068240000000     0.015430000000     0.0531726  
H90      H      0.612650000000     0.137480000000     0.020510000000     0.104226   
H91      H      0.931350000000     0.767780000000     0.278470000000     0.0431705  
H92      H      0.977020000000     0.775230000000     0.310660000000     0.0455344  
H93      H      0.028590000000     0.664570000000     0.251580000000     0.0487038  
H94      H      0.984950000000     0.658610000000     0.215290000000     0.0378283  
H95      H      0.018340000000     0.741090000000     0.248840000000     0.0547531  
H96      H      0.972850000000     0.733230000000     0.215500000000     0.0493516  
H97      H      0.027140000000     0.709940000000     0.161250000000     0.104425   
H98      H      0.942680000000     0.692120000000     0.279170000000     0.0502516  
H99      H      0.988340000000     0.699280000000     0.312440000000     0.0525375  
H100     H      0.925250000000     0.718040000000     0.359830000000     0.105238   
H101     H      0.214430000000     0.739460000000     0.110660000000     0.0487989  
H102     H      0.259950000000     0.724710000000     0.140130000000     0.0404179  
H103     H      0.331290000000     0.789040000000     0.034930000000     0.0431287  
H104     H      0.285240000000     0.809920000000     0.012310000000     0.0449408  
H105     H      0.298240000000     0.787570000000     0.113820000000     0.0511713  
H106     H      0.251490000000     0.804740000000     0.087880000000     0.0523687  
H107     H      0.311220000000     0.859470000000     0.089750000000     0.105638   
H108     H      0.252350000000     0.742250000000     0.036990000000     0.0538057  
H109     H      0.298190000000     0.725540000000     0.065210000000     0.0499135  
H110     H      0.257320000000     0.664250000000     0.075890000000     0.105164   
H111     H      0.247290000000     0.456170000000     0.383720000000     0.0424175  
H112     H      0.293270000000     0.471360000000     0.355630000000     0.0464997  
H113     H      0.224470000000     0.509190000000     0.235000000000     0.0452029  
H114     H      0.177760000000     0.495800000000     0.262600000000     0.0432225  
H115     H      0.255720000000     0.525420000000     0.311400000000     0.0520918  
H116     H      0.208750000000     0.511380000000     0.339120000000     0.0508312  
H117     H      0.196850000000     0.576220000000     0.293900000000     0.104852   
H118     H      0.214940000000     0.440610000000     0.308250000000     0.0503362  
H119     H      0.261480000000     0.454420000000     0.279470000000     0.0526614  
H120     H      0.266850000000     0.387710000000     0.330080000000     0.105004   
H121     H      0.989720000000     0.338120000000     0.852400000000     0.050418   
H122     H      0.039980000000     0.337940000000     0.876980000000     0.0355875  
H123     H      0.063990000000     0.218310000000     0.819800000000     0.045327   
H124     H      0.011990000000     0.213150000000     0.802530000000     0.0442437  
H125     H      0.060210000000     0.293740000000     0.809040000000     0.0512261  
H126     H      0.008330000000     0.289350000000     0.789540000000     0.0528258  
H127     H      0.048730000000     0.255460000000     0.729100000000     0.1055     
H128     H      0.987190000000     0.261360000000     0.864820000000     0.0574379  
H129     H      0.039000000000     0.263420000000     0.884960000000     0.049954   
H130     H      0.010620000000     0.309620000000     0.949380000000     0.103508   
H131     H      0.805390000000     0.253510000000     0.142520000000     0.0346642  
H132     H      0.788750000000     0.204340000000     0.121740000000     0.0462022  
H133     H      0.744740000000     0.260570000000     0.996590000000     0.0343237  
H134     H      0.758930000000     0.310380000000     0.017670000000     0.0468193  
H135     H      0.801130000000     0.228880000000     0.040640000000     0.0548158  
H136     H      0.816540000000     0.278220000000     0.061440000000     0.0637235  
H137     H      0.800830000000     0.260090000000     0.946590000000     0.105538   
H138     H      0.748910000000     0.287140000000     0.099380000000     0.0555705  
H139     H      0.732750000000     0.238250000000     0.078030000000     0.0641764  
H140     H      0.750410000000     0.256010000000     0.193760000000     0.106019   
H141     H      0.762820000000     0.445460000000     0.874870000000     0.0442746  
H142     H      0.777870000000     0.490170000000     0.905480000000     0.0431532  
H143     H      0.727920000000     0.566350000000     0.795820000000     0.0461771  
H144     H      0.712750000000     0.521750000000     0.765130000000     0.0435053  
H145     H      0.718190000000     0.528900000000     0.870190000000     0.0517098  
H146     H      0.703630000000     0.483830000000     0.838870000000     0.0506797  
H147     H      0.648430000000     0.538330000000     0.828970000000     0.104777   
H148     H      0.771900000000     0.482950000000     0.800470000000     0.0518246  
H149     H      0.786470000000     0.528060000000     0.831630000000     0.0514168  
H150     H      0.841530000000     0.473650000000     0.840400000000     0.105289   
H151     H      0.935370000000     0.505560000000     0.039140000000     0.0456921  
H152     H      0.936600000000     0.508270000000     0.100800000000     0.0329844  
H153     H      0.068230000000     0.485720000000     0.098080000000     0.0471255  
H154     H      0.064220000000     0.474350000000     0.037830000000     0.034816   
H155     H      0.010520000000     0.533990000000     0.092360000000     0.0589942  
H156     H      0.008210000000     0.526820000000     0.031380000000     0.0549744  
H157     H      0.091940000000     0.538480000000     0.018030000000     0.106541   
H158     H      0.991990000000     0.452960000000     0.042760000000     0.0623644  
H159     H      0.993910000000     0.459790000000     0.103770000000     0.0534097  
H160     H      0.905880000000     0.443370000000     0.106380000000     0.105293   
N1       N      0.005180000000     0.050820000000     0.629290000000    -0.203847   
N2       N      0.955120000000     0.896680000000     0.516840000000    -0.203713   
N3       N      0.693870000000     0.719200000000     0.656980000000    -0.203692   
N4       N      0.768940000000     0.805930000000     0.486630000000    -0.203629   
N5       N      0.325550000000     0.269810000000     0.527200000000    -0.203775   
N6       N      0.179310000000     0.159060000000     0.584730000000    -0.203261   
N7       N      0.413950000000     0.454870000000     0.532620000000    -0.203671   
N8       N      0.561830000000     0.552240000000     0.612000000000    -0.203346   
N9       N      0.711400000000     0.031090000000     0.215510000000    -0.204524   
N10      N      0.846280000000     0.940580000000     0.326820000000    -0.203408   
N11      N      0.574080000000     0.183190000000     0.277380000000    -0.203761   
N12      N      0.464300000000     0.323330000000     0.353530000000    -0.204065   
N13      N      0.159790000000     0.048300000000     0.785550000000    -0.203913   
N14      N      0.324040000000     0.980460000000     0.862450000000    -0.204201   
N15      N      0.523970000000     0.714290000000     0.766170000000    -0.203621   
N16      N      0.474730000000     0.837090000000     0.920090000000    -0.203495   
N17      N      0.444050000000     0.021070000000     0.038480000000    -0.203071   
N18      N      0.595860000000     0.134480000000     0.050600000000    -0.205129   
N19      N      0.035100000000     0.686340000000     0.183480000000    -0.20389    
N20      N      0.928900000000     0.747430000000     0.346710000000    -0.204508   
N21      N      0.317660000000     0.848560000000     0.057020000000    -0.20402    
N22      N      0.236450000000     0.679890000000     0.096330000000    -0.203221   
N23      N      0.192460000000     0.558220000000     0.264870000000    -0.203878   
N24      N      0.279920000000     0.408300000000     0.353030000000    -0.203549   
N25      N      0.052260000000     0.229840000000     0.749930000000    -0.204017   
N26      N      0.993610000000     0.323340000000     0.923450000000    -0.203677   
N27      N      0.800410000000     0.282910000000     0.971430000000    -0.20473    
N28      N      0.749040000000     0.233650000000     0.168430000000    -0.204549   
N29      N      0.665970000000     0.550340000000     0.802420000000    -0.203607   
N30      N      0.824590000000     0.461980000000     0.867620000000    -0.203995   
N31      N      0.086000000000     0.533040000000     0.052520000000    -0.204435   
N32      N      0.915890000000     0.452390000000     0.074090000000    -0.204837   
O1       O      0.828270000000     0.342670000000     0.997080000000    -0.24914    
O2       O      0.936140000000     0.359530000000     0.905290000000    -0.247177   
O3       O      0.883420000000     0.398320000000     0.041370000000    -0.249198   
O4       O      0.824810000000     0.421190000000     0.931010000000    -0.256622   
O5       O      0.880040000000     0.426340000000     0.892030000000    -0.248122   
O6       O      0.916260000000     0.439200000000     0.997280000000    -0.258445   
O7       O      0.851670000000     0.316550000000     0.934970000000    -0.255738   
O8       O      0.945370000000     0.341990000000     0.975360000000    -0.25733    
O9       O      0.168080000000     0.555800000000     0.191610000000    -0.252036   
O10      O      0.088460000000     0.669630000000     0.137350000000    -0.251798   
O11      O      0.096210000000     0.553840000000     0.126390000000    -0.253811   
O12      O      0.199870000000     0.621400000000     0.105120000000    -0.249746   
O13      O      0.178340000000     0.675370000000     0.139260000000    -0.249801   
O14      O      0.124040000000     0.588320000000     0.072240000000    -0.249939   
O15      O      0.163980000000     0.612450000000     0.228320000000    -0.252831   
O16      O      0.078390000000     0.633040000000     0.197260000000    -0.253286   
O17      O      0.326270000000     0.943410000000     0.928700000000    -0.254285   
O18      O      0.449540000000     0.878640000000     0.975840000000    -0.249121   
O19      O      0.348520000000     0.861340000000     0.988440000000    -0.254823   
O20      O      0.388680000000     0.984290000000     0.016320000000    -0.249961   
O21      O      0.447640000000     0.963090000000     0.994950000000    -0.249212   
O22      O      0.353460000000     0.906430000000     0.041430000000    -0.249978   
O23      O      0.382830000000     0.961090000000     0.897490000000    -0.254153   
O24      O      0.418810000000     0.877850000000     0.910800000000    -0.250874   
O25      O      0.596960000000     0.133540000000     0.128800000000    -0.255548   
O26      O      0.694650000000     0.204130000000     0.203640000000    -0.251129   
O27      O      0.709480000000     0.100760000000     0.214660000000    -0.255862   
O28      O      0.618110000000     0.136140000000     0.248270000000    -0.252931   
O29      O      0.609230000000     0.191890000000     0.210600000000    -0.250136   
O30      O      0.661880000000     0.068100000000     0.180050000000    -0.255567   
O31      O      0.653260000000     0.143460000000     0.093120000000    -0.252211   
O32      O      0.716480000000     0.176810000000     0.141460000000    -0.250273   
O33      O      0.423490000000     0.408450000000     0.475250000000    -0.252753   
O34      O      0.319260000000     0.314330000000     0.467410000000    -0.251773   
O35      O      0.420580000000     0.371760000000     0.379950000000    -0.253023   
O36      O      0.320290000000     0.357610000000     0.380850000000    -0.250762   
O37      O      0.325620000000     0.417080000000     0.411320000000    -0.251366   
O38      O      0.419600000000     0.312940000000     0.412420000000    -0.253303   
O39      O      0.363320000000     0.415030000000     0.503410000000    -0.250789   
O40      O      0.374990000000     0.314740000000     0.505930000000    -0.252497   
O41      O      0.548860000000     0.675230000000     0.708220000000    -0.251731   
O42      O      0.613510000000     0.590570000000     0.641180000000    -0.250222   
O43      O      0.611330000000     0.586910000000     0.777140000000    -0.251604   
O44      O      0.668160000000     0.681040000000     0.715220000000    -0.251877   
O45      O      0.640050000000     0.675410000000     0.649130000000    -0.250447   
O46      O      0.667550000000     0.592120000000     0.739920000000    -0.252181   
O47      O      0.581220000000     0.674820000000     0.772120000000    -0.250857   
O48      O      0.556420000000     0.590350000000     0.677260000000    -0.250146   
O49      O      0.831540000000     0.880650000000     0.363290000000    -0.247494   
O50      O      0.895340000000     0.896360000000     0.476660000000    -0.251025   
O51      O      0.915070000000     0.815270000000     0.355960000000    -0.255777   
O52      O      0.803020000000     0.827170000000     0.423190000000    -0.24763    
O53      O      0.836410000000     0.823400000000     0.486250000000    -0.252987   
O54      O      0.892370000000     0.773290000000     0.406170000000    -0.254784   
O55      O      0.888810000000     0.909790000000     0.377700000000    -0.250851   
O56      O      0.938320000000     0.847910000000     0.464660000000    -0.252698   
O57      O      0.027690000000     0.108090000000     0.665460000000    -0.253022   
O58      O      0.159300000000     0.092330000000     0.724920000000    -0.251757   
O59      O      0.072040000000     0.162990000000     0.753570000000    -0.252976   
O60      O      0.120930000000     0.128570000000     0.609280000000    -0.251312   
O61      O      0.161030000000     0.154030000000     0.660040000000    -0.248194   
O62      O      0.076310000000     0.193950000000     0.689060000000    -0.253526   
O63      O      0.071520000000     0.061310000000     0.650060000000    -0.252309   
O64      O      0.101960000000     0.074900000000     0.754500000000    -0.251171   


