data_structure

_audit_creation_method RASPA-1.0
_audit_creation_date 2023-5-23
_audit_author_name 'Poobodin Mano'

_cell_length_a    25.1571
_cell_length_b    50.8186
_cell_length_c    26.0422
_cell_angle_alpha 90.0007
_cell_angle_beta  90.0007
_cell_angle_gamma 120
_cell_volume      28833.1

_symmetry_cell_setting          triclinic
_symmetry_space_group_name_Hall 'P 1'
_symmetry_space_group_name_H-M  'P 1'
_symmetry_Int_Tables_number     1

_symmetry_equiv_pos_as_xyz 'x,y,z'

loop_
_atom_site_label
_atom_site_type_symbol
_atom_site_fract_x
_atom_site_fract_y
_atom_site_fract_z
_atom_site_charge
C1       C      0.685100000000     0.230970000000     0.373700000000     0.347321   
C2       C      0.770410000000     0.230590000000     0.203350000000     0.347278   
C3       C      0.706520000000     0.298500000000     0.248260000000     0.344485   
C4       C      0.885840000000     0.298460000000     0.329010000000     0.344967   
C5       C      0.457350000000     0.345800000000     0.036630000000     0.346982   
C6       C      0.458180000000     0.390270000000     0.207050000000     0.34711    
C7       C      0.591170000000     0.356370000000     0.162990000000     0.344116   
C8       C      0.591110000000     0.445770000000     0.081050000000     0.34402    
C9       C      0.770090000000     0.160580000000     0.041110000000     0.347241   
C10      C      0.683780000000     0.116740000000     0.870640000000     0.347173   
C11      C      0.884880000000     0.150490000000     0.915100000000     0.344493   
C12      C      0.705910000000     0.060910000000     0.996460000000     0.344256   
C13      C      0.317560000000     0.276000000000     0.873730000000     0.347378   
C14      C      0.231910000000     0.276360000000     0.703360000000     0.347283   
C15      C      0.296050000000     0.208530000000     0.748360000000     0.344441   
C16      C      0.116760000000     0.208590000000     0.829160000000     0.344609   
C17      C      0.545280000000     0.161170000000     0.536580000000     0.347113   
C18      C      0.544460000000     0.116870000000     0.707030000000     0.347071   
C19      C      0.411370000000     0.150650000000     0.663070000000     0.344114   
C20      C      0.411390000000     0.061230000000     0.581180000000     0.34396    
C21      C      0.232100000000     0.346320000000     0.541100000000     0.347308   
C22      C      0.318920000000     0.390420000000     0.370680000000     0.34715    
C23      C      0.117700000000     0.356490000000     0.415010000000     0.344246   
C24      C      0.296670000000     0.446070000000     0.496600000000     0.344089   
C25      C      0.415060000000     0.018590000000     0.548720000000     0.0348319  
C26      C      0.320450000000     0.017750000000     0.550710000000     0.0352424  
C27      C      0.291420000000     0.988610000000     0.529080000000     0.0352323  
C28      C      0.386240000000     0.489660000000     0.526980000000     0.034805   
C29      C      0.290550000000     0.164000000000     0.712720000000     0.0353722  
C30      C      0.386370000000     0.208920000000     0.721190000000     0.034889   
C31      C      0.415370000000     0.194420000000     0.699200000000     0.034869   
C32      C      0.319760000000     0.149350000000     0.690930000000     0.0351578  
C33      C      0.227990000000     0.319260000000     0.671860000000     0.0352786  
C34      C      0.230380000000     0.284310000000     0.613560000000     0.0351149  
C35      C      0.230960000000     0.302140000000     0.572530000000     0.035267   
C36      C      0.227460000000     0.336810000000     0.630810000000     0.0351164  
C37      C      0.972550000000     0.148890000000     0.884390000000     0.0352411  
C38      C      0.970580000000     0.194810000000     0.881760000000     0.0349241  
C39      C      0.028760000000     0.209380000000     0.859570000000     0.0348819  
C40      C      0.031240000000     0.163590000000     0.862450000000     0.0352382  
C41      C      0.593270000000     0.114500000000     0.838280000000     0.0353881  
C42      C      0.666700000000     0.115500000000     0.780700000000     0.0351175  
C43      C      0.631730000000     0.115820000000     0.739320000000     0.0353688  
C44      C      0.557730000000     0.114240000000     0.796880000000     0.0351074  
C45      C      0.444940000000     0.392890000000     0.296900000000     0.0350892  
C46      C      0.371020000000     0.391420000000     0.239350000000     0.0353467  
C47      C      0.336080000000     0.391760000000     0.280740000000     0.0351079  
C48      C      0.409410000000     0.392640000000     0.338310000000     0.0353778  
C49      C      0.682250000000     0.489440000000     0.051360000000     0.0352061  
C50      C      0.587290000000     0.488180000000     0.047650000000     0.034851   
C51      C      0.616120000000     0.017080000000     0.025850000000     0.0348308  
C52      C      0.711310000000     0.018580000000     0.029770000000     0.0353215  
C53      C      0.443650000000     0.336320000000     0.946860000000     0.0350259  
C54      C      0.369790000000     0.301510000000     0.004790000000     0.0350253  
C55      C      0.334690000000     0.283720000000     0.963600000000     0.0353267  
C56      C      0.407990000000     0.318810000000     0.905640000000     0.035425   
C57      C      0.594680000000     0.188150000000     0.405600000000     0.0353259  
C58      C      0.668010000000     0.223230000000     0.463570000000     0.0351134  
C59      C      0.632900000000     0.205430000000     0.504750000000     0.0353151  
C60      C      0.559020000000     0.170640000000     0.446820000000     0.0350958  
C61      C      0.974250000000     0.297770000000     0.358610000000     0.0349588  
C62      C      0.971000000000     0.343320000000     0.363050000000     0.0353867  
C63      C      0.029680000000     0.358010000000     0.385010000000     0.0351248  
C64      C      0.032420000000     0.312310000000     0.380820000000     0.0348056  
C65      C      0.616170000000     0.298130000000     0.221260000000     0.0348958  
C66      C      0.712040000000     0.342990000000     0.212400000000     0.0353341  
C67      C      0.682830000000     0.357630000000     0.190620000000     0.0351245  
C68      C      0.587160000000     0.312630000000     0.199280000000     0.0348237  
C69      C      0.772010000000     0.222650000000     0.113560000000     0.0351188  
C70      C      0.774000000000     0.187600000000     0.171880000000     0.0353097  
C71      C      0.774470000000     0.170030000000     0.130840000000     0.0350129  
C72      C      0.771390000000     0.204810000000     0.072540000000     0.0352707  
C73      C      0.685120000000     0.730970000000     0.373690000000     0.347351   
C74      C      0.770450000000     0.730600000000     0.203340000000     0.347384   
C75      C      0.706550000000     0.798500000000     0.248260000000     0.344569   
C76      C      0.885870000000     0.798460000000     0.329010000000     0.344615   
C77      C      0.457370000000     0.845800000000     0.036640000000     0.347072   
C78      C      0.458190000000     0.890270000000     0.207060000000     0.347053   
C79      C      0.591180000000     0.856360000000     0.163000000000     0.343964   
C80      C      0.591120000000     0.945770000000     0.081050000000     0.343897   
C81      C      0.770120000000     0.660590000000     0.041090000000     0.347182   
C82      C      0.683790000000     0.616740000000     0.870620000000     0.347148   
C83      C      0.884900000000     0.650500000000     0.915080000000     0.344284   
C84      C      0.705920000000     0.560910000000     0.996450000000     0.344205   
C85      C      0.317590000000     0.776000000000     0.873730000000     0.347308   
C86      C      0.231940000000     0.776370000000     0.703360000000     0.347212   
C87      C      0.296070000000     0.708530000000     0.748360000000     0.344442   
C88      C      0.116780000000     0.708590000000     0.829150000000     0.34472    
C89      C      0.545300000000     0.661160000000     0.536560000000     0.347023   
C90      C      0.544470000000     0.616870000000     0.707010000000     0.347061   
C91      C      0.411380000000     0.650650000000     0.663060000000     0.344226   
C92      C      0.411380000000     0.561220000000     0.581170000000     0.34409    
C93      C      0.232130000000     0.846330000000     0.541100000000     0.347352   
C94      C      0.318940000000     0.890420000000     0.370680000000     0.347111   
C95      C      0.117720000000     0.856500000000     0.415020000000     0.344203   
C96      C      0.296680000000     0.946070000000     0.496610000000     0.344164   
C97      C      0.415040000000     0.518570000000     0.548760000000     0.0348956  
C98      C      0.320450000000     0.517750000000     0.550660000000     0.0352263  
C99      C      0.291420000000     0.488610000000     0.529030000000     0.0352457  
C100     C      0.386260000000     0.989680000000     0.526940000000     0.0348274  
C101     C      0.290570000000     0.663990000000     0.712720000000     0.0352881  
C102     C      0.386390000000     0.708930000000     0.721150000000     0.0348452  
C103     C      0.415380000000     0.694420000000     0.699160000000     0.0348901  
C104     C      0.319770000000     0.649350000000     0.690940000000     0.0352135  
C105     C      0.228030000000     0.819270000000     0.671870000000     0.0352677  
C106     C      0.230410000000     0.784310000000     0.613570000000     0.0351592  
C107     C      0.230990000000     0.802140000000     0.572540000000     0.0352016  
C108     C      0.227500000000     0.836820000000     0.630820000000     0.0351034  
C109     C      0.972570000000     0.648900000000     0.884390000000     0.0353133  
C110     C      0.970590000000     0.694810000000     0.881720000000     0.0349029  
C111     C      0.028760000000     0.709380000000     0.859530000000     0.0348479  
C112     C      0.031260000000     0.663600000000     0.862450000000     0.0352981  
C113     C      0.593290000000     0.614510000000     0.838270000000     0.0353882  
C114     C      0.666700000000     0.615490000000     0.780680000000     0.0351359  
C115     C      0.631740000000     0.615810000000     0.739300000000     0.035314   
C116     C      0.557750000000     0.614250000000     0.796870000000     0.0350645  
C117     C      0.444950000000     0.892900000000     0.296910000000     0.0351778  
C118     C      0.371030000000     0.891420000000     0.239360000000     0.0352699  
C119     C      0.336090000000     0.891750000000     0.280740000000     0.0351524  
C120     C      0.409430000000     0.892640000000     0.338320000000     0.035281   
C121     C      0.682260000000     0.989440000000     0.051390000000     0.0351549  
C122     C      0.587280000000     0.988170000000     0.047630000000     0.0348121  
C123     C      0.616130000000     0.517090000000     0.025870000000     0.0348434  
C124     C      0.711310000000     0.518580000000     0.029730000000     0.0352524  
C125     C      0.443680000000     0.836310000000     0.946870000000     0.035049   
C126     C      0.369800000000     0.801510000000     0.004800000000     0.0350087  
C127     C      0.334710000000     0.783720000000     0.963600000000     0.0353879  
C128     C      0.408020000000     0.818800000000     0.905650000000     0.0354039  
C129     C      0.594710000000     0.688140000000     0.405590000000     0.0353895  
C130     C      0.668020000000     0.723220000000     0.463560000000     0.0351249  
C131     C      0.632910000000     0.705430000000     0.504740000000     0.0352538  
C132     C      0.559050000000     0.670630000000     0.446800000000     0.035062   
C133     C      0.974260000000     0.797770000000     0.358640000000     0.0349907  
C134     C      0.971030000000     0.843330000000     0.363030000000     0.035297   
C135     C      0.029720000000     0.858020000000     0.384990000000     0.0351845  
C136     C      0.032430000000     0.812310000000     0.380850000000     0.034764   
C137     C      0.616190000000     0.798130000000     0.221270000000     0.0348902  
C138     C      0.712060000000     0.842990000000     0.212390000000     0.0352553  
C139     C      0.682840000000     0.857620000000     0.190620000000     0.0352288  
C140     C      0.587180000000     0.812630000000     0.199290000000     0.0348317  
C141     C      0.772040000000     0.722660000000     0.113550000000     0.035104   
C142     C      0.774040000000     0.687610000000     0.171860000000     0.0353225  
C143     C      0.774520000000     0.670040000000     0.130820000000     0.0350361  
C144     C      0.771420000000     0.704810000000     0.072520000000     0.0352837  
Cd1      Cd     0.762630000000     0.265190000000     0.288410000000     0.512879   
Cd2      Cd     0.525610000000     0.384770000000     0.121710000000     0.51305    
Cd3      Cd     0.761830000000     0.121960000000     0.956180000000     0.512989   
Cd4      Cd     0.239910000000     0.241840000000     0.788450000000     0.512851   
Cd5      Cd     0.476930000000     0.122260000000     0.621700000000     0.513037   
Cd6      Cd     0.240700000000     0.385040000000     0.456190000000     0.512918   
Cd7      Cd     0.762660000000     0.765180000000     0.288400000000     0.512857   
Cd8      Cd     0.525620000000     0.884770000000     0.121720000000     0.513046   
Cd9      Cd     0.761850000000     0.621960000000     0.956160000000     0.512979   
Cd10     Cd     0.239940000000     0.741840000000     0.788450000000     0.512876   
Cd11     Cd     0.476940000000     0.622260000000     0.621680000000     0.513037   
Cd12     Cd     0.240720000000     0.885050000000     0.456200000000     0.512905   
H1       H      0.464050000000     0.029500000000     0.555720000000     0.0509396  
H2       H      0.292800000000     0.028070000000     0.559440000000     0.0509678  
H3       H      0.242430000000     0.977510000000     0.522020000000     0.050964   
H4       H      0.414250000000     0.479510000000     0.518360000000     0.050927   
H5       H      0.241100000000     0.151180000000     0.717280000000     0.0508971  
H6       H      0.414730000000     0.232500000000     0.732490000000     0.0508935  
H7       H      0.464820000000     0.207430000000     0.694700000000     0.050962   
H8       H      0.291760000000     0.125770000000     0.679560000000     0.0509491  
H9       H      0.226980000000     0.326940000000     0.710510000000     0.0509301  
H10      H      0.231600000000     0.263740000000     0.604950000000     0.0502403  
H11      H      0.232380000000     0.294560000000     0.533900000000     0.0509503  
H12      H      0.226310000000     0.357400000000     0.639420000000     0.0502143  
H13      H      0.951880000000     0.124940000000     0.893540000000     0.0509269  
H14      H      0.948490000000     0.208140000000     0.888610000000     0.050948   
H15      H      0.049050000000     0.233320000000     0.850480000000     0.0509438  
H16      H      0.053710000000     0.150450000000     0.855550000000     0.0508957  
H17      H      0.576420000000     0.114100000000     0.876770000000     0.0509177  
H18      H      0.709500000000     0.116040000000     0.772500000000     0.0502448  
H19      H      0.648840000000     0.116480000000     0.700840000000     0.0509465  
H20      H      0.514990000000     0.113770000000     0.805070000000     0.0502363  
H21      H      0.487630000000     0.393320000000     0.305090000000     0.0502296  
H22      H      0.353950000000     0.390810000000     0.200870000000     0.0509318  
H23      H      0.293320000000     0.391260000000     0.272550000000     0.0502415  
H24      H      0.426230000000     0.393000000000     0.376800000000     0.0509052  
H25      H      0.710030000000     0.479280000000     0.060800000000     0.0509621  
H26      H      0.538150000000     0.477110000000     0.053950000000     0.0509099  
H27      H      0.587960000000     0.027040000000     0.016460000000     0.0508787  
H28      H      0.760460000000     0.029850000000     0.023420000000     0.0508989  
H29      H      0.486390000000     0.356950000000     0.938450000000     0.0502635  
H30      H      0.352790000000     0.293870000000     0.043350000000     0.0509952  
H31      H      0.291900000000     0.263110000000     0.972020000000     0.0502283  
H32      H      0.424760000000     0.326570000000     0.867070000000     0.0508872  
H33      H      0.577910000000     0.180400000000     0.367030000000     0.0509085  
H34      H      0.710800000000     0.243830000000     0.471990000000     0.0502583  
H35      H      0.649890000000     0.213070000000     0.543310000000     0.0509544  
H36      H      0.516270000000     0.150010000000     0.438400000000     0.0502023  
H37      H      0.954270000000     0.273920000000     0.348890000000     0.050902   
H38      H      0.948220000000     0.356380000000     0.356780000000     0.0508459  
H39      H      0.050040000000     0.381860000000     0.394790000000     0.0509566  
H40      H      0.054820000000     0.299070000000     0.387040000000     0.0509628  
H41      H      0.587800000000     0.274580000000     0.232710000000     0.0508864  
H42      H      0.761510000000     0.355780000000     0.216800000000     0.0508847  
H43      H      0.710830000000     0.381180000000     0.179100000000     0.050963   
H44      H      0.537690000000     0.299650000000     0.194930000000     0.050965   
H45      H      0.770980000000     0.243270000000     0.104940000000     0.0502235  
H46      H      0.774850000000     0.179880000000     0.210530000000     0.0509138  
H47      H      0.775430000000     0.149400000000     0.139460000000     0.0502216  
H48      H      0.770140000000     0.212430000000     0.033890000000     0.0509229  
H49      H      0.464030000000     0.529470000000     0.555800000000     0.0509111  
H50      H      0.292810000000     0.528090000000     0.559350000000     0.0509759  
H51      H      0.242440000000     0.477520000000     0.521930000000     0.0509612  
H52      H      0.414280000000     0.979540000000     0.518280000000     0.0509298  
H53      H      0.241120000000     0.651170000000     0.717300000000     0.0509156  
H54      H      0.414740000000     0.732510000000     0.732430000000     0.0509083  
H55      H      0.464830000000     0.707440000000     0.694640000000     0.0509504  
H56      H      0.291780000000     0.625760000000     0.679590000000     0.0509471  
H57      H      0.227040000000     0.826950000000     0.710520000000     0.0509302  
H58      H      0.231620000000     0.763740000000     0.604950000000     0.0502222  
H59      H      0.232390000000     0.794560000000     0.533900000000     0.0509791  
H60      H      0.226370000000     0.857410000000     0.639430000000     0.0502183  
H61      H      0.951900000000     0.624940000000     0.893550000000     0.0509045  
H62      H      0.948490000000     0.708140000000     0.888560000000     0.0509477  
H63      H      0.049050000000     0.733320000000     0.850440000000     0.0509474  
H64      H      0.053740000000     0.650450000000     0.855570000000     0.0508736  
H65      H      0.576440000000     0.614110000000     0.876750000000     0.0509135  
H66      H      0.709500000000     0.616030000000     0.772490000000     0.0502428  
H67      H      0.648830000000     0.616460000000     0.700820000000     0.050966   
H68      H      0.515020000000     0.613780000000     0.805060000000     0.0502431  
H69      H      0.487640000000     0.893320000000     0.305100000000     0.0502112  
H70      H      0.353960000000     0.890790000000     0.200880000000     0.0509567  
H71      H      0.293330000000     0.891250000000     0.272550000000     0.0502276  
H72      H      0.426250000000     0.893010000000     0.376810000000     0.0509382  
H73      H      0.710040000000     0.979290000000     0.060850000000     0.0509754  
H74      H      0.538130000000     0.977080000000     0.053910000000     0.0509337  
H75      H      0.587980000000     0.527060000000     0.016500000000     0.0508794  
H76      H      0.760450000000     0.529840000000     0.023370000000     0.0509039  
H77      H      0.486420000000     0.856950000000     0.938470000000     0.0502592  
H78      H      0.352800000000     0.793860000000     0.043360000000     0.0510009  
H79      H      0.291910000000     0.763110000000     0.972020000000     0.0502126  
H80      H      0.424790000000     0.826560000000     0.867080000000     0.0508916  
H81      H      0.577940000000     0.680390000000     0.367010000000     0.0508952  
H82      H      0.710810000000     0.743830000000     0.471980000000     0.0502569  
H83      H      0.649900000000     0.713070000000     0.543300000000     0.0509708  
H84      H      0.516310000000     0.650000000000     0.438390000000     0.0502185  
H85      H      0.954270000000     0.773920000000     0.348940000000     0.0508936  
H86      H      0.948260000000     0.856390000000     0.356740000000     0.0508714  
H87      H      0.050080000000     0.881870000000     0.394750000000     0.0509388  
H88      H      0.054820000000     0.799070000000     0.387100000000     0.0509788  
H89      H      0.587820000000     0.774580000000     0.232720000000     0.0508863  
H90      H      0.761530000000     0.855780000000     0.216790000000     0.0509091  
H91      H      0.710850000000     0.881180000000     0.179090000000     0.0509411  
H92      H      0.537700000000     0.799650000000     0.194950000000     0.0509625  
H93      H      0.771000000000     0.743270000000     0.104920000000     0.0502243  
H94      H      0.774910000000     0.679890000000     0.210510000000     0.0509103  
H95      H      0.775490000000     0.649410000000     0.139440000000     0.0502129  
H96      H      0.770160000000     0.712430000000     0.033880000000     0.0509164  
N1       N      0.382210000000     0.032620000000     0.560480000000    -0.160651   
N2       N      0.324490000000     0.474680000000     0.517260000000    -0.160689   
N3       N      0.324030000000     0.193760000000     0.727740000000    -0.16075    
N4       N      0.382100000000     0.164680000000     0.684140000000    -0.160642   
N5       N      0.229780000000     0.293140000000     0.663120000000    -0.161431   
N6       N      0.229840000000     0.328430000000     0.581280000000    -0.161507   
N7       N      0.942480000000     0.164600000000     0.894040000000    -0.160728   
N8       N      0.059100000000     0.193810000000     0.850090000000    -0.160726   
N9       N      0.647890000000     0.115380000000     0.830070000000    -0.161393   
N10      N      0.577600000000     0.115440000000     0.747540000000    -0.161383   
N11      N      0.425100000000     0.391740000000     0.247560000000    -0.161418   
N12      N      0.354840000000     0.391820000000     0.330110000000    -0.161398   
N13      N      0.620300000000     0.474370000000     0.060290000000    -0.160653   
N14      N      0.678070000000     0.032280000000     0.017070000000    -0.160737   
N15      N      0.423960000000     0.327870000000     0.996300000000    -0.161293   
N16      N      0.353410000000     0.292670000000     0.914130000000    -0.161447   
N17      N      0.649270000000     0.214290000000     0.414100000000    -0.161389   
N18      N      0.578710000000     0.179090000000     0.496250000000    -0.161456   
N19      N      0.943510000000     0.313230000000     0.349920000000    -0.160838   
N20      N      0.060120000000     0.342400000000     0.393900000000    -0.160635   
N21      N      0.678540000000     0.313260000000     0.227610000000    -0.160762   
N22      N      0.620450000000     0.342340000000     0.184030000000    -0.160636   
N23      N      0.772440000000     0.213780000000     0.163120000000    -0.161445   
N24      N      0.772300000000     0.178470000000     0.081300000000    -0.161405   
N25      N      0.382210000000     0.532610000000     0.560480000000    -0.160704   
N26      N      0.324500000000     0.974690000000     0.517260000000    -0.160653   
N27      N      0.324050000000     0.693760000000     0.727720000000    -0.160691   
N28      N      0.382110000000     0.664670000000     0.684120000000    -0.16073    
N29      N      0.229820000000     0.793150000000     0.663120000000    -0.161443   
N30      N      0.229880000000     0.828440000000     0.581290000000    -0.161442   
N31      N      0.942500000000     0.664600000000     0.894020000000    -0.160722   
N32      N      0.059120000000     0.693810000000     0.850080000000    -0.160757   
N33      N      0.647900000000     0.615380000000     0.830050000000    -0.16139    
N34      N      0.577610000000     0.615440000000     0.747520000000    -0.161344   
N35      N      0.425110000000     0.891730000000     0.247570000000    -0.161434   
N36      N      0.354850000000     0.891820000000     0.330110000000    -0.161399   
N37      N      0.620300000000     0.974360000000     0.060300000000    -0.16067    
N38      N      0.678070000000     0.532290000000     0.017060000000    -0.160775   
N39      N      0.423980000000     0.827860000000     0.996300000000    -0.161267   
N40      N      0.353440000000     0.792660000000     0.914140000000    -0.161447   
N41      N      0.649290000000     0.714280000000     0.414080000000    -0.161415   
N42      N      0.578720000000     0.679080000000     0.496230000000    -0.161426   
N43      N      0.943540000000     0.813230000000     0.349920000000    -0.160768   
N44      N      0.060150000000     0.842410000000     0.393900000000    -0.160639   
N45      N      0.678560000000     0.813260000000     0.227620000000    -0.160743   
N46      N      0.620470000000     0.842340000000     0.184040000000    -0.16067    
N47      N      0.772480000000     0.713790000000     0.163110000000    -0.161457   
N48      N      0.772330000000     0.678470000000     0.081280000000    -0.161453   
O1       O      0.765530000000     0.221700000000     0.249410000000    -0.240445   
O2       O      0.854380000000     0.311380000000     0.322120000000    -0.237813   
O3       O      0.671760000000     0.221950000000     0.327710000000    -0.240131   
O4       O      0.675900000000     0.271090000000     0.262830000000    -0.244992   
O5       O      0.764340000000     0.311110000000     0.253200000000    -0.237363   
O6       O      0.734170000000     0.256070000000     0.380090000000    -0.246755   
O7       O      0.772280000000     0.255730000000     0.196750000000    -0.246886   
O8       O      0.860360000000     0.270750000000     0.316130000000    -0.245079   
O9       O      0.438200000000     0.386220000000     0.161430000000    -0.240094   
O10      O      0.619170000000     0.431560000000     0.092010000000    -0.236933   
O11      O      0.437690000000     0.340090000000     0.082340000000    -0.240522   
O12      O      0.533630000000     0.342280000000     0.156070000000    -0.244901   
O13      O      0.619530000000     0.384130000000     0.149820000000    -0.237174   
O14      O      0.509190000000     0.369450000000     0.030410000000    -0.24711    
O15      O      0.509970000000     0.392180000000     0.213020000000    -0.24684    
O16      O      0.533950000000     0.431780000000     0.089840000000    -0.245054   
O17      O      0.670600000000     0.119590000000     0.916470000000    -0.239897   
O18      O      0.763420000000     0.076390000000     0.989110000000    -0.237065   
O19      O      0.762820000000     0.166390000000     0.995230000000    -0.240587   
O20      O      0.857130000000     0.164940000000     0.924910000000    -0.244894   
O21      O      0.855790000000     0.122300000000     0.925300000000    -0.237375   
O22      O      0.774160000000     0.136960000000     0.047600000000    -0.247269   
O23      O      0.732870000000     0.115910000000     0.864550000000    -0.246768   
O24      O      0.675480000000     0.073670000000     0.984250000000    -0.244995   
O25      O      0.230230000000     0.251270000000     0.696770000000    -0.246995   
O26      O      0.147890000000     0.195550000000     0.821570000000    -0.237581   
O27      O      0.330830000000     0.285050000000     0.827750000000    -0.240156   
O28      O      0.326650000000     0.235980000000     0.762730000000    -0.244931   
O29      O      0.238250000000     0.195880000000     0.753480000000    -0.237265   
O30      O      0.268510000000     0.250890000000     0.880110000000    -0.246766   
O31      O      0.236720000000     0.285250000000     0.749420000000    -0.240477   
O32      O      0.142550000000     0.236410000000     0.816920000000    -0.244918   
O33      O      0.564430000000     0.120920000000     0.661400000000    -0.239976   
O34      O      0.383500000000     0.075630000000     0.591350000000    -0.23689    
O35      O      0.564900000000     0.166900000000     0.582300000000    -0.240537   
O36      O      0.468860000000     0.164780000000     0.655920000000    -0.244933   
O37      O      0.383040000000     0.122850000000     0.650100000000    -0.237164   
O38      O      0.493450000000     0.137520000000     0.530370000000    -0.247172   
O39      O      0.492630000000     0.114910000000     0.713010000000    -0.246816   
O40      O      0.468390000000     0.075040000000     0.590700000000    -0.245034   
O41      O      0.332000000000     0.387470000000     0.416490000000    -0.23995    
O42      O      0.239310000000     0.430800000000     0.488380000000    -0.237023   
O43      O      0.239650000000     0.340590000000     0.495240000000    -0.240685   
O44      O      0.145800000000     0.342140000000     0.424140000000    -0.244903   
O45      O      0.146420000000     0.384600000000     0.425950000000    -0.237111   
O46      O      0.227860000000     0.369900000000     0.547570000000    -0.247181   
O47      O      0.269880000000     0.391300000000     0.364600000000    -0.246797   
O48      O      0.326960000000     0.433110000000     0.485200000000    -0.244912   
O49      O      0.765570000000     0.721700000000     0.249400000000    -0.240471   
O50      O      0.854410000000     0.811390000000     0.322100000000    -0.237601   
O51      O      0.671790000000     0.721950000000     0.327700000000    -0.24015    
O52      O      0.675930000000     0.771090000000     0.262830000000    -0.244998   
O53      O      0.764360000000     0.811110000000     0.253190000000    -0.237406   
O54      O      0.734190000000     0.756070000000     0.380080000000    -0.246761   
O55      O      0.772310000000     0.755730000000     0.196740000000    -0.247009   
O56      O      0.860370000000     0.770740000000     0.316150000000    -0.244952   
O57      O      0.438210000000     0.886210000000     0.161440000000    -0.240101   
O58      O      0.619190000000     0.931560000000     0.092040000000    -0.23682    
O59      O      0.437700000000     0.840080000000     0.082340000000    -0.240563   
O60      O      0.533640000000     0.842280000000     0.156090000000    -0.244856   
O61      O      0.619550000000     0.884130000000     0.149820000000    -0.237016   
O62      O      0.509210000000     0.869440000000     0.030430000000    -0.247201   
O63      O      0.509990000000     0.892180000000     0.213030000000    -0.24677    
O64      O      0.533950000000     0.931770000000     0.089830000000    -0.245008   
O65      O      0.670620000000     0.619600000000     0.916450000000    -0.239874   
O66      O      0.763430000000     0.576390000000     0.989070000000    -0.23705    
O67      O      0.762840000000     0.666390000000     0.995220000000    -0.240631   
O68      O      0.857130000000     0.664940000000     0.924880000000    -0.24486    
O69      O      0.855810000000     0.622300000000     0.925300000000    -0.237217   
O70      O      0.774200000000     0.636960000000     0.047580000000    -0.24711    
O71      O      0.732880000000     0.615910000000     0.864530000000    -0.246771   
O72      O      0.675490000000     0.573680000000     0.984270000000    -0.244932   
O73      O      0.230250000000     0.751270000000     0.696770000000    -0.24688    
O74      O      0.147920000000     0.695550000000     0.821580000000    -0.23757    
O75      O      0.330860000000     0.785050000000     0.827750000000    -0.240141   
O76      O      0.326670000000     0.735980000000     0.762710000000    -0.244971   
O77      O      0.238270000000     0.695880000000     0.753490000000    -0.237269   
O78      O      0.268530000000     0.750890000000     0.880110000000    -0.246725   
O79      O      0.236760000000     0.785250000000     0.749420000000    -0.240491   
O80      O      0.142570000000     0.736400000000     0.816900000000    -0.245024   
O81      O      0.564440000000     0.620910000000     0.661380000000    -0.239962   
O82      O      0.383510000000     0.575630000000     0.591300000000    -0.236951   
O83      O      0.564910000000     0.666900000000     0.582290000000    -0.240489   
O84      O      0.468870000000     0.664780000000     0.655880000000    -0.244949   
O85      O      0.383050000000     0.622850000000     0.650100000000    -0.237201   
O86      O      0.493470000000     0.637510000000     0.530340000000    -0.24714    
O87      O      0.492640000000     0.614910000000     0.712990000000    -0.246813   
O88      O      0.468370000000     0.575030000000     0.590730000000    -0.245071   
O89      O      0.332030000000     0.887480000000     0.416490000000    -0.23993    
O90      O      0.239310000000     0.930790000000     0.488430000000    -0.237041   
O91      O      0.239670000000     0.840590000000     0.495250000000    -0.240721   
O92      O      0.145810000000     0.842140000000     0.424170000000    -0.244817   
O93      O      0.146460000000     0.884610000000     0.425930000000    -0.237147   
O94      O      0.227900000000     0.869910000000     0.547580000000    -0.247223   
O95      O      0.269890000000     0.891300000000     0.364610000000    -0.246729   
O96      O      0.326980000000     0.933130000000     0.485170000000    -0.245013   


