data_structure

_audit_creation_method RASPA-1.0
_audit_creation_date 2023-5-22
_audit_author_name 'Poobodin Mano'

_cell_length_a    26.4007
_cell_length_b    25.7081
_cell_length_c    26.3023
_cell_angle_alpha 90
_cell_angle_beta  90
_cell_angle_gamma 90
_cell_volume      17851.7

_symmetry_cell_setting          triclinic
_symmetry_space_group_name_Hall 'P 1'
_symmetry_space_group_name_H-M  'P 1'
_symmetry_Int_Tables_number     1

_symmetry_equiv_pos_as_xyz 'x,y,z'

loop_
_atom_site_label
_atom_site_type_symbol
_atom_site_fract_x
_atom_site_fract_y
_atom_site_fract_z
_atom_site_charge
C1       C      0.920200000000     0.427860000000     0.918250000000     0.348813   
C2       C      0.913630000000     0.302320000000     0.788350000000     0.349668   
C3       C      0.784980000000     0.309030000000     0.917670000000     0.350266   
C4       C      0.796260000000     0.439620000000     0.790320000000     0.349663   
C5       C      0.046630000000     0.544040000000     0.041960000000     0.350457   
C6       C      0.170980000000     0.678670000000     0.046150000000     0.349882   
C7       C      0.041870000000     0.679330000000     0.166370000000     0.34933    
C8       C      0.169130000000     0.548410000000     0.171030000000     0.348923   
C9       C      0.289570000000     0.801150000000     0.920300000000     0.348105   
C10      C      0.283910000000     0.925480000000     0.791090000000     0.349447   
C11      C      0.407420000000     0.934820000000     0.922620000000     0.350387   
C12      C      0.420480000000     0.805020000000     0.794660000000     0.350601   
C13      C      0.660490000000     0.186370000000     0.037780000000     0.348984   
C14      C      0.530680000000     0.059200000000     0.041820000000     0.350144   
C15      C      0.665940000000     0.057650000000     0.162650000000     0.348948   
C16      C      0.539740000000     0.183580000000     0.173410000000     0.350072   
C17      C      0.292430000000     0.429080000000     0.295270000000     0.349132   
C18      C      0.417920000000     0.302400000000     0.299570000000     0.35043    
C19      C      0.414460000000     0.430970000000     0.427030000000     0.349001   
C20      C      0.288000000000     0.301290000000     0.426360000000     0.349534   
C21      C      0.672430000000     0.561000000000     0.668670000000     0.348861   
C22      C      0.666710000000     0.681030000000     0.534230000000     0.350101   
C23      C      0.540490000000     0.554020000000     0.545120000000     0.349443   
C24      C      0.542570000000     0.685790000000     0.668990000000     0.349108   
C25      C      0.791330000000     0.933810000000     0.280170000000     0.349544   
C26      C      0.912890000000     0.928320000000     0.412980000000     0.349685   
C27      C      0.786160000000     0.798440000000     0.404770000000     0.351285   
C28      C      0.917320000000     0.806960000000     0.280900000000     0.348551   
C29      C      0.031960000000     0.177950000000     0.663810000000     0.348776   
C30      C      0.157100000000     0.042250000000     0.668140000000     0.349149   
C31      C      0.036530000000     0.044700000000     0.539600000000     0.349232   
C32      C      0.164750000000     0.177650000000     0.546740000000     0.348989   
C33      C      0.970530000000     0.997870000000     0.426570000000     0.0430374  
C34      C      0.948570000000     0.942810000000     0.494660000000     0.0623705  
C35      C      0.002330000000     0.026100000000     0.458650000000     0.0338096  
C36      C      0.981360000000     0.970240000000     0.527120000000    -0.00161106 
C37      C      0.988970000000     0.948250000000     0.578760000000     0.308553   
C38      C      0.679760000000     0.755930000000     0.482950000000     0.0429787  
C39      C      0.741120000000     0.689440000000     0.484100000000     0.0623537  
C40      C      0.709760000000     0.784570000000     0.449490000000     0.0354457  
C41      C      0.771080000000     0.717300000000     0.449290000000    -0.000757273
C42      C      0.815800000000     0.689880000000     0.427890000000     0.307448   
C43      C      0.206890000000     0.278760000000     0.458850000000     0.04232    
C44      C      0.279130000000     0.233300000000     0.486850000000     0.0623814  
C45      C      0.176470000000     0.247880000000     0.489980000000     0.0346953  
C46      C      0.249060000000     0.202940000000     0.519480000000    -0.00111558 
C47      C      0.276300000000     0.168100000000     0.555260000000     0.308045   
C48      C      0.463000000000     0.507710000000     0.439450000000     0.0427428  
C49      C      0.459910000000     0.444250000000     0.503950000000     0.0619783  
C50      C      0.495470000000     0.537740000000     0.469200000000     0.0349094  
C51      C      0.493620000000     0.473590000000     0.533810000000    -0.00115708 
C52      C      0.512800000000     0.448510000000     0.580880000000     0.307385   
C53      C      0.705190000000     0.037400000000     0.241420000000     0.0420477  
C54      C      0.724240000000     0.987530000000     0.168770000000     0.0623999  
C55      C      0.737640000000     0.006530000000     0.270310000000     0.0348818  
C56      C      0.758090000000     0.956940000000     0.197220000000    -0.00103662 
C57      C      0.789910000000     0.919470000000     0.168430000000     0.30734    
C58      C      0.429930000000     0.230870000000     0.243790000000     0.0427607  
C59      C      0.499230000000     0.284340000000     0.264970000000     0.0617862  
C60      C      0.461230000000     0.200840000000     0.212850000000     0.0349282  
C61      C      0.531470000000     0.253560000000     0.234840000000    -0.00120098 
C62      C      0.586540000000     0.264830000000     0.238080000000     0.307182   
C63      C      0.225180000000     0.994470000000     0.779470000000     0.0421094  
C64      C      0.244880000000     0.939250000000     0.710820000000     0.0618485  
C65      C      0.192530000000     0.022790000000     0.748350000000     0.0336617  
C66      C      0.211270000000     0.966830000000     0.679310000000    -0.00205836 
C67      C      0.201820000000     0.944800000000     0.627980000000     0.308151   
C68      C      0.464180000000     0.701630000000     0.710400000000     0.0430421  
C69      C      0.532510000000     0.759020000000     0.723320000000     0.0632651  
C70      C      0.434310000000     0.731360000000     0.742990000000     0.0361     
C71      C      0.503070000000     0.788760000000     0.757110000000     0.000117113
C72      C      0.529700000000     0.830840000000     0.785060000000     0.305613   
C73      C      0.488190000000     0.041960000000     0.963970000000     0.042563   
C74      C      0.476010000000     0.986280000000     0.034030000000     0.0627768  
C75      C      0.456270000000     0.010810000000     0.934690000000     0.0359297  
C76      C      0.442700000000     0.955350000000     0.005330000000     4.2951e-05 
C77      C      0.414760000000     0.914010000000     0.033120000000     0.307898   
C78      C      0.961100000000     0.700950000000     0.199920000000     0.0421298  
C79      C      0.030650000000     0.756120000000     0.215370000000     0.0616629  
C80      C      0.929980000000     0.734050000000     0.227910000000     0.0336987  
C81      C      0.999390000000     0.790460000000     0.242690000000    -0.00200009 
C82      C      0.022100000000     0.840920000000     0.258120000000     0.306925   
C83      C      0.209130000000     0.774230000000     0.950990000000     0.041753   
C84      C      0.283330000000     0.738300000000     0.986200000000     0.0608451  
C85      C      0.179820000000     0.743980000000     0.983670000000     0.0344641  
C86      C      0.254230000000     0.708520000000     0.020180000000    -0.000804097
C87      C      0.282270000000     0.679890000000     0.060360000000     0.307221   
C88      C      0.200980000000     0.526220000000     0.252680000000     0.0416457  
C89      C      0.231490000000     0.482500000000     0.180190000000     0.061531   
C90      C      0.233020000000     0.496660000000     0.283340000000     0.0346123  
C91      C      0.264790000000     0.453270000000     0.210550000000    -0.00164564 
C92      C      0.302180000000     0.420170000000     0.183450000000     0.308113   
C93      C      0.993690000000     0.276920000000     0.755580000000     0.0424812  
C94      C      0.919640000000     0.236230000000     0.725420000000     0.0621465  
C95      C      0.022880000000     0.246020000000     0.723380000000     0.0343224  
C96      C      0.948570000000     0.205810000000     0.691750000000    -0.00150141 
C97      C      0.920090000000     0.173690000000     0.654540000000     0.30779    
C98      C      0.738840000000     0.202280000000     0.996450000000     0.0422897  
C99      C      0.673250000000     0.264030000000     0.990270000000     0.0628368  
C100     C      0.769980000000     0.233950000000     0.966980000000     0.0354513  
C101     C      0.704720000000     0.296910000000     0.961400000000    -0.000894096
C102     C      0.684720000000     0.349530000000     0.949690000000     0.308218   
C103     C      0.721730000000     0.485130000000     0.682420000000     0.0424131  
C104     C      0.719550000000     0.550540000000     0.745090000000     0.0623657  
C105     C      0.753840000000     0.455570000000     0.712930000000     0.0351571  
C106     C      0.752730000000     0.521470000000     0.775870000000    -0.000674244
C107     C      0.772590000000     0.547450000000     0.822220000000     0.307072   
C108     C      0.974960000000     0.499870000000     0.931540000000     0.0419124  
C109     C      0.963160000000     0.438470000000     0.996950000000     0.0615941  
C110     C      0.007640000000     0.528060000000     0.962720000000     0.0342982  
C111     C      0.996980000000     0.465900000000     0.028350000000    -0.000638588
C112     C      0.011810000000     0.440550000000     0.076880000000     0.30703    
Cd1      Cd     0.853240000000     0.368460000000     0.853570000000     0.518457   
Cd2      Cd     0.106040000000     0.612130000000     0.106320000000     0.519024   
Cd3      Cd     0.351200000000     0.866470000000     0.855650000000     0.519405   
Cd4      Cd     0.598570000000     0.121750000000     0.102800000000     0.517587   
Cd5      Cd     0.352430000000     0.365300000000     0.362840000000     0.517447   
Cd6      Cd     0.605450000000     0.621460000000     0.604470000000     0.517534   
Cd7      Cd     0.850550000000     0.866820000000     0.345670000000     0.520258   
Cd8      Cd     0.097440000000     0.110920000000     0.604440000000     0.520695   
H1       H      0.022120000000     0.059110000000     0.442360000000     0.0553355  
H2       H      0.967820000000     0.009900000000     0.387140000000     0.0525483  
H3       H      0.928560000000     0.909230000000     0.509620000000     0.0577377  
H4       H      0.042000000000     0.922800000000     0.628890000000     0.204115   
H5       H      0.695720000000     0.822350000000     0.437730000000     0.056244   
H6       H      0.643880000000     0.772500000000     0.494830000000     0.0542239  
H7       H      0.753820000000     0.651220000000     0.496220000000     0.0574132  
H8       H      0.851470000000     0.670010000000     0.362230000000     0.198519   
H9       H      0.135980000000     0.254990000000     0.489050000000     0.0556847  
H10      H      0.188680000000     0.308460000000     0.435970000000     0.0525834  
H11      H      0.319880000000     0.227500000000     0.487220000000     0.0578471  
H12      H      0.284790000000     0.149140000000     0.629770000000     0.200255   
H13      H      0.507730000000     0.574750000000     0.453660000000     0.0559869  
H14      H      0.452370000000     0.522500000000     0.402340000000     0.0544451  
H15      H      0.447310000000     0.406740000000     0.518120000000     0.0571061  
H16      H      0.576550000000     0.427420000000     0.618980000000     0.199333   
H17      H      0.740810000000     0.015450000000     0.310500000000     0.0555617  
H18      H      0.685490000000     0.068940000000     0.260370000000     0.053998   
H19      H      0.720550000000     0.980010000000     0.128310000000     0.0579929  
H20      H      0.862260000000     0.895830000000     0.155690000000     0.200904   
H21      H      0.443820000000     0.168710000000     0.192620000000     0.0562827  
H22      H      0.390270000000     0.220200000000     0.246430000000     0.0547745  
H23      H      0.515460000000     0.316530000000     0.286180000000     0.0568693  
H24      H      0.655530000000     0.232880000000     0.252170000000     0.199351   
H25      H      0.173380000000     0.055910000000     0.765180000000     0.0553459  
H26      H      0.229150000000     0.006550000000     0.818780000000     0.0532317  
H27      H      0.264300000000     0.905560000000     0.695310000000     0.0568134  
H28      H      0.146920000000     0.920930000000     0.579160000000     0.20495    
H29      H      0.395500000000     0.718820000000     0.748700000000     0.0568836  
H30      H      0.447340000000     0.667380000000     0.693240000000     0.0548045  
H31      H      0.571710000000     0.770120000000     0.717090000000     0.0588266  
H32      H      0.577810000000     0.891920000000     0.776800000000     0.200941   
H33      H      0.450490000000     0.022020000000     0.895360000000     0.0565739  
H34      H      0.504940000000     0.075930000000     0.946210000000     0.0538531  
H35      H      0.482220000000     0.976410000000     0.073690000000     0.0582927  
H36      H      0.344820000000     0.884380000000     0.047320000000     0.199444   
H37      H      0.890600000000     0.722840000000     0.232210000000     0.0570437  
H38      H      0.944240000000     0.666390000000     0.183410000000     0.0542253  
H39      H      0.070170000000     0.766420000000     0.209880000000     0.0572871  
H40      H      0.012970000000     0.919350000000     0.255510000000     0.199513   
H41      H      0.138990000000     0.747340000000     0.980390000000     0.0551891  
H42      H      0.189730000000     0.799900000000     0.924690000000     0.0525039  
H43      H      0.324340000000     0.736310000000     0.988850000000     0.059516   
H44      H      0.287600000000     0.668230000000     0.136580000000     0.200279   
H45      H      0.231440000000     0.503490000000     0.324010000000     0.0556854  
H46      H      0.176850000000     0.554830000000     0.270890000000     0.0534686  
H47      H      0.232510000000     0.476990000000     0.139260000000     0.0590506  
H48      H      0.377160000000     0.403880000000     0.176330000000     0.200553   
H49      H      0.063630000000     0.251200000000     0.724820000000     0.0560912  
H50      H      0.013120000000     0.304710000000     0.779700000000     0.0528619  
H51      H      0.878680000000     0.232430000000     0.724660000000     0.056795   
H52      H      0.911250000000     0.158110000000     0.579330000000     0.199501   
H53      H      0.807680000000     0.219560000000     0.958530000000     0.056374   
H54      H      0.754140000000     0.165560000000     0.009740000000     0.0538771  
H55      H      0.635420000000     0.277360000000     0.999930000000     0.0581419  
H56      H      0.698990000000     0.426920000000     0.956000000000     0.204731   
H57      H      0.765540000000     0.417940000000     0.698430000000     0.0561543  
H58      H      0.710860000000     0.469340000000     0.645770000000     0.0539065  
H59      H      0.707480000000     0.588660000000     0.758130000000     0.0579609  
H60      H      0.836760000000     0.565480000000     0.861080000000     0.198664   
H61      H      0.023500000000     0.563670000000     0.947340000000     0.0550401  
H62      H      0.967740000000     0.514520000000     0.893550000000     0.0529518  
H63      H      0.947040000000     0.402340000000     0.010950000000     0.057945   
H64      H      0.071830000000     0.418310000000     0.120090000000     0.199713   
N1       N      0.943550000000     0.956500000000     0.444680000000    -0.164325   
N2       N      0.007320000000     0.013220000000     0.509030000000    -0.146653   
N3       N      0.695840000000     0.708840000000     0.500770000000    -0.164309   
N4       N      0.755970000000     0.766300000000     0.433640000000    -0.146622   
N5       N      0.258040000000     0.271070000000     0.456970000000    -0.164436   
N6       N      0.196990000000     0.209310000000     0.519590000000    -0.146385   
N7       N      0.445250000000     0.461110000000     0.456880000000    -0.164154   
N8       N      0.510420000000     0.521440000000     0.516560000000    -0.146564   
N9       N      0.698110000000     0.027470000000     0.190910000000    -0.164176   
N10      N      0.763210000000     0.965560000000     0.248910000000    -0.146705   
N11      N      0.448850000000     0.272800000000     0.269390000000    -0.164615   
N12      N      0.511660000000     0.212460000000     0.207290000000    -0.146647   
N13      N      0.251670000000     0.953140000000     0.760530000000    -0.16455    
N14      N      0.186260000000     0.010100000000     0.698070000000    -0.146738   
N15      N      0.513090000000     0.715600000000     0.700450000000    -0.163878   
N16      N      0.453000000000     0.775420000000     0.765700000000    -0.146982   
N17      N      0.498590000000     0.029190000000     0.013280000000    -0.164186   
N18      N      0.434550000000     0.966790000000     0.954560000000    -0.14621    
N19      N      0.011400000000     0.711790000000     0.194090000000    -0.164631   
N20      N      0.948950000000     0.778130000000     0.250330000000    -0.146744   
N21      N      0.260750000000     0.771050000000     0.952050000000    -0.164266   
N22      N      0.201900000000     0.710330000000     0.017560000000    -0.146748   
N23      N      0.200080000000     0.518890000000     0.201260000000    -0.164442   
N24      N      0.264250000000     0.459520000000     0.262820000000    -0.146701   
N25      N      0.942230000000     0.271680000000     0.756840000000    -0.164644   
N26      N      0.000870000000     0.209780000000     0.692090000000    -0.146412   
N27      N      0.690560000000     0.217270000000     0.007950000000    -0.163885   
N28      N      0.753160000000     0.280870000000     0.948720000000    -0.146532   
N29      N      0.704230000000     0.532250000000     0.698740000000    -0.164048   
N30      N      0.768420000000     0.472710000000     0.760110000000    -0.146309   
N31      N      0.952390000000     0.455500000000     0.948880000000    -0.164181   
N32      N      0.017830000000     0.512160000000     0.011460000000    -0.146852   
O1       O      0.933260000000     0.337130000000     0.816150000000    -0.242158   
O2       O      0.802840000000     0.447420000000     0.837380000000    -0.224074   
O3       O      0.910560000000     0.441680000000     0.873020000000    -0.235331   
O4       O      0.830720000000     0.295980000000     0.910650000000    -0.237838   
O5       O      0.770620000000     0.348750000000     0.893260000000    -0.228258   
O6       O      0.898530000000     0.386700000000     0.933330000000    -0.237677   
O7       O      0.865900000000     0.297950000000     0.791090000000    -0.237281   
O8       O      0.815230000000     0.397880000000     0.773100000000    -0.238771   
O9       O      0.123320000000     0.684710000000     0.047370000000    -0.237791   
O10      O      0.140610000000     0.583520000000     0.189050000000    -0.239407   
O11      O      0.070030000000     0.583180000000     0.024430000000    -0.240124   
O12      O      0.088680000000     0.688220000000     0.160360000000    -0.237507   
O13      O      0.024900000000     0.638850000000     0.144800000000    -0.239805   
O14      O      0.049920000000     0.537750000000     0.089540000000    -0.22773    
O15      O      0.187760000000     0.640640000000     0.071590000000    -0.227389   
O16      O      0.167810000000     0.542740000000     0.123220000000    -0.233513   
O17      O      0.290430000000     0.936840000000     0.837540000000    -0.236909   
O18      O      0.431110000000     0.850600000000     0.809300000000    -0.227942   
O19      O      0.270030000000     0.833340000000     0.889550000000    -0.240934   
O20      O      0.396210000000     0.948030000000     0.877560000000    -0.235115   
O21      O      0.393760000000     0.889540000000     0.935330000000    -0.224739   
O22      O      0.337490000000     0.798980000000     0.920400000000    -0.231242   
O23      O      0.308860000000     0.886830000000     0.774690000000    -0.240507   
O24      O      0.376870000000     0.788850000000     0.807070000000    -0.238146   
O25      O      0.550970000000     0.100190000000     0.024490000000    -0.240838   
O26      O      0.522300000000     0.142820000000     0.152690000000    -0.239723   
O27      O      0.615560000000     0.199020000000     0.049500000000    -0.23466    
O28      O      0.657970000000     0.049040000000     0.115910000000    -0.235413   
O29      O      0.642500000000     0.096010000000     0.181610000000    -0.238328   
O30      O      0.676220000000     0.143680000000     0.055930000000    -0.240528   
O31      O      0.541940000000     0.047540000000     0.087200000000    -0.237101   
O32      O      0.583900000000     0.196460000000     0.159590000000    -0.225693   
O33      O      0.434050000000     0.341950000000     0.323290000000    -0.239902   
O34      O      0.270220000000     0.338270000000     0.399980000000    -0.241483   
O35      O      0.315150000000     0.388420000000     0.280620000000    -0.229017   
O36      O      0.401870000000     0.444420000000     0.382450000000    -0.236189   
O37      O      0.397660000000     0.387420000000     0.441940000000    -0.23883    
O38      O      0.296090000000     0.439130000000     0.342360000000    -0.236078   
O39      O      0.371410000000     0.291910000000     0.305480000000    -0.236717   
O40      O      0.335320000000     0.294140000000     0.422970000000    -0.237178   
O41      O      0.681110000000     0.637770000000     0.552180000000    -0.240253   
O42      O      0.525880000000     0.644930000000     0.647910000000    -0.239523   
O43      O      0.657990000000     0.545190000000     0.625450000000    -0.234735   
O44      O      0.560250000000     0.594780000000     0.526540000000    -0.240388   
O45      O      0.549450000000     0.546190000000     0.591750000000    -0.224597   
O46      O      0.655730000000     0.605050000000     0.682260000000    -0.238398   
O47      O      0.623720000000     0.696880000000     0.549040000000    -0.237675   
O48      O      0.588380000000     0.697010000000     0.659730000000    -0.234962   
O49      O      0.908490000000     0.939060000000     0.366160000000    -0.235572   
O50      O      0.870110000000     0.798340000000     0.283080000000    -0.23212    
O51      O      0.799890000000     0.945190000000     0.326290000000    -0.23817    
O52      O      0.769990000000     0.841020000000     0.386620000000    -0.2401     
O53      O      0.832390000000     0.788850000000     0.396420000000    -0.227292   
O54      O      0.808830000000     0.890530000000     0.265600000000    -0.226824   
O55      O      0.887790000000     0.889420000000     0.428540000000    -0.238691   
O56      O      0.933370000000     0.842410000000     0.310090000000    -0.227897   
O57      O      0.131010000000     0.079060000000     0.686680000000    -0.238924   
O58      O      0.179680000000     0.136980000000     0.569240000000    -0.226702   
O59      O      0.079490000000     0.184850000000     0.661700000000    -0.237039   
O60      O      0.037120000000     0.040490000000     0.587460000000    -0.223994   
O61      O      0.063490000000     0.081180000000     0.521650000000    -0.238908   
O62      O      0.015590000000     0.138970000000     0.639530000000    -0.226752   
O63      O      0.156080000000     0.038620000000     0.620230000000    -0.223384   
O64      O      0.117570000000     0.186490000000     0.549590000000    -0.237082   
O65      O      0.036190000000     0.937780000000     0.595640000000    -0.308944   
O66      O      0.952350000000     0.937440000000     0.605160000000    -0.212438   
O67      O      0.822940000000     0.688140000000     0.377050000000    -0.307706   
O68      O      0.845030000000     0.666960000000     0.456130000000    -0.214693   
O69      O      0.267050000000     0.171020000000     0.605700000000    -0.308394   
O70      O      0.308750000000     0.138340000000     0.539330000000    -0.211846   
O71      O      0.563170000000     0.444190000000     0.588890000000    -0.306936   
O72      O      0.483040000000     0.429650000000     0.611340000000    -0.21405    
O73      O      0.840740000000     0.919490000000     0.174460000000    -0.308186   
O74      O      0.770360000000     0.890090000000     0.137600000000    -0.213068   
O75      O      0.619560000000     0.226320000000     0.249180000000    -0.307557   
O76      O      0.601820000000     0.309410000000     0.232960000000    -0.214379   
O77      O      0.153930000000     0.935880000000     0.612190000000    -0.309396   
O78      O      0.237480000000     0.932600000000     0.600830000000    -0.212438   
O79      O      0.559310000000     0.864710000000     0.759420000000    -0.319859   
O80      O      0.526950000000     0.833370000000     0.831390000000    -0.200713   
O81      O      0.363840000000     0.910650000000     0.029160000000    -0.309218   
O82      O      0.437580000000     0.884340000000     0.061320000000    -0.211549   
O83      O      0.998570000000     0.886010000000     0.246390000000    -0.30872    
O84      O      0.063200000000     0.841790000000     0.279500000000    -0.215535   
O85      O      0.269460000000     0.686000000000     0.109730000000    -0.30841    
O86      O      0.318400000000     0.652530000000     0.048980000000    -0.211939   
O87      O      0.352080000000     0.424610000000     0.193940000000    -0.307903   
O88      O      0.288020000000     0.390490000000     0.150030000000    -0.214803   
O89      O      0.929780000000     0.178170000000     0.604300000000    -0.309004   
O90      O      0.886260000000     0.144870000000     0.669180000000    -0.212935   
O91      O      0.711590000000     0.392230000000     0.962650000000    -0.30666    
O92      O      0.642850000000     0.354300000000     0.930400000000    -0.212668   
O93      O      0.822920000000     0.548290000000     0.831440000000    -0.307561   
O94      O      0.743590000000     0.570030000000     0.850960000000    -0.214401   
O95      O      0.061270000000     0.435260000000     0.088990000000    -0.307674   
O96      O      0.979330000000     0.422420000000     0.104870000000    -0.214828   


