data_structure

_audit_creation_method RASPA-1.0
_audit_creation_date 2023-5-23
_audit_author_name 'Poobodin Mano'

_cell_length_a    34.4455
_cell_length_b    34.46
_cell_length_c    34.8228
_cell_angle_alpha 90.0128
_cell_angle_beta  90.1088
_cell_angle_gamma 119.969
_cell_volume      35807.7

_symmetry_cell_setting          triclinic
_symmetry_space_group_name_Hall 'P 1'
_symmetry_space_group_name_H-M  'P 1'
_symmetry_Int_Tables_number     1

_symmetry_equiv_pos_as_xyz 'x,y,z'

loop_
_atom_site_label
_atom_site_type_symbol
_atom_site_fract_x
_atom_site_fract_y
_atom_site_fract_z
_atom_site_charge
C1       C      0.514350000000     0.453720000000     0.068870000000     0.344654   
C2       C      0.639770000000     0.452080000000     0.132590000000     0.344718   
C3       C      0.514390000000     0.453700000000     0.196620000000     0.344711   
C4       C      0.515800000000     0.328200000000     0.132930000000     0.344907   
C5       C      0.455500000000     0.512870000000     0.446510000000     0.34466    
C6       C      0.454080000000     0.638370000000     0.382430000000     0.344692   
C7       C      0.455500000000     0.512860000000     0.318760000000     0.344615   
C8       C      0.330100000000     0.514500000000     0.382720000000     0.344899   
C9       C      0.798910000000     0.452060000000     0.132340000000     0.344886   
C10      C      0.925970000000     0.453710000000     0.196280000000     0.344754   
C11      C      0.799040000000     0.328170000000     0.132340000000     0.344892   
C12      C      0.925890000000     0.453680000000     0.068530000000     0.344675   
C13      C      0.170850000000     0.638430000000     0.382750000000     0.34474    
C14      C      0.043930000000     0.512890000000     0.318790000000     0.344587   
C15      C      0.170970000000     0.514530000000     0.382820000000     0.344921   
C16      C      0.043960000000     0.512910000000     0.446550000000     0.344759   
C17      C      0.514460000000     0.042260000000     0.068800000000     0.344611   
C18      C      0.515930000000     0.169190000000     0.132910000000     0.344866   
C19      C      0.514490000000     0.042290000000     0.196560000000     0.34455    
C20      C      0.639950000000     0.169170000000     0.132560000000     0.344775   
C21      C      0.329940000000     0.797420000000     0.382580000000     0.34489    
C22      C      0.455430000000     0.924320000000     0.446400000000     0.344657   
C23      C      0.453960000000     0.797390000000     0.382370000000     0.34493    
C24      C      0.455420000000     0.924290000000     0.318640000000     0.344674   
C25      C      0.458120000000     0.998120000000     0.242020000000     0.0350855  
C26      C      0.526720000000     0.998290000000     0.242320000000     0.0351308  
C27      C      0.511780000000     0.968460000000     0.273180000000     0.0352402  
C28      C      0.443190000000     0.968290000000     0.272880000000     0.0352384  
C29      C      0.458230000000     0.998370000000     0.022910000000     0.035199   
C30      C      0.526580000000     0.998040000000     0.023230000000     0.0351427  
C31      C      0.511660000000     0.968230000000     0.492290000000     0.0351992  
C32      C      0.443310000000     0.968550000000     0.491970000000     0.0352102  
C33      C      0.225400000000     0.702610000000     0.416580000000     0.0348849  
C34      C      0.225070000000     0.702510000000     0.348820000000     0.0348688  
C35      C      0.265600000000     0.743020000000     0.348780000000     0.0349746  
C36      C      0.265930000000     0.743120000000     0.416530000000     0.0349637  
C37      C      0.744870000000     0.264060000000     0.166270000000     0.0348867  
C38      C      0.744440000000     0.264000000000     0.098510000000     0.0348779  
C39      C      0.703910000000     0.223490000000     0.098570000000     0.0349459  
C40      C      0.704330000000     0.223550000000     0.166320000000     0.0349621  
C41      C      0.970190000000     0.441650000000     0.242020000000     0.0348815  
C42      C      0.969910000000     0.510000000000     0.242080000000     0.0352546  
C43      C      0.999730000000     0.524950000000     0.273050000000     0.0348125  
C44      C      0.000010000000     0.456610000000     0.272990000000     0.0354684  
C45      C      0.969890000000     0.509990000000     0.022960000000     0.0353718  
C46      C      0.970110000000     0.441620000000     0.022940000000     0.0352834  
C47      C      0.999960000000     0.456600000000     0.492110000000     0.0347575  
C48      C      0.999740000000     0.524970000000     0.492120000000     0.0347177  
C49      C      0.463500000000     0.702340000000     0.348480000000     0.0348549  
C50      C      0.464150000000     0.702700000000     0.416230000000     0.034966   
C51      C      0.464120000000     0.743220000000     0.416220000000     0.034913   
C52      C      0.463470000000     0.742850000000     0.348470000000     0.0349581  
C53      C      0.225570000000     0.504970000000     0.416690000000     0.0349612  
C54      C      0.225190000000     0.504550000000     0.348940000000     0.0349585  
C55      C      0.265730000000     0.504540000000     0.348910000000     0.0349397  
C56      C      0.266120000000     0.504960000000     0.416660000000     0.0349061  
C57      C      0.704170000000     0.462040000000     0.166340000000     0.0349164  
C58      C      0.703730000000     0.461630000000     0.098590000000     0.0349478  
C59      C      0.744280000000     0.461630000000     0.098530000000     0.0349291  
C60      C      0.744710000000     0.462030000000     0.166280000000     0.0349275  
C61      C      0.505710000000     0.223350000000     0.099100000000     0.0349908  
C62      C      0.506470000000     0.223740000000     0.166850000000     0.0348576  
C63      C      0.506440000000     0.264250000000     0.166850000000     0.034933   
C64      C      0.505670000000     0.263860000000     0.099100000000     0.0349284  
C65      C      0.458150000000     0.441560000000     0.023000000000     0.0351927  
C66      C      0.526570000000     0.510080000000     0.023330000000     0.0351497  
C67      C      0.511690000000     0.525030000000     0.492390000000     0.0352175  
C68      C      0.443280000000     0.456510000000     0.492060000000     0.0351769  
C69      C      0.443160000000     0.456640000000     0.272950000000     0.0351769  
C70      C      0.511850000000     0.524880000000     0.273320000000     0.0351988  
C71      C      0.526740000000     0.509920000000     0.242440000000     0.0351764  
C72      C      0.458050000000     0.441680000000     0.242080000000     0.0351824  
C73      C      0.514350000000     0.453710000000     0.568870000000     0.344697   
C74      C      0.639770000000     0.452080000000     0.632580000000     0.344859   
C75      C      0.514390000000     0.453700000000     0.696620000000     0.344707   
C76      C      0.515800000000     0.328200000000     0.632930000000     0.344863   
C77      C      0.455500000000     0.512870000000     0.946510000000     0.344661   
C78      C      0.454080000000     0.638370000000     0.882430000000     0.344907   
C79      C      0.455500000000     0.512860000000     0.818760000000     0.34457    
C80      C      0.330100000000     0.514500000000     0.882710000000     0.345002   
C81      C      0.798910000000     0.452060000000     0.632340000000     0.345049   
C82      C      0.925970000000     0.453710000000     0.696280000000     0.344643   
C83      C      0.799040000000     0.328170000000     0.632340000000     0.344892   
C84      C      0.925900000000     0.453680000000     0.568530000000     0.344627   
C85      C      0.170850000000     0.638430000000     0.882750000000     0.344882   
C86      C      0.043940000000     0.512890000000     0.818790000000     0.344676   
C87      C      0.170970000000     0.514530000000     0.882820000000     0.34492    
C88      C      0.043960000000     0.512910000000     0.946550000000     0.344695   
C89      C      0.514450000000     0.042260000000     0.568800000000     0.344667   
C90      C      0.515930000000     0.169190000000     0.632910000000     0.344858   
C91      C      0.514490000000     0.042290000000     0.696550000000     0.34461    
C92      C      0.639950000000     0.169170000000     0.632560000000     0.344777   
C93      C      0.329940000000     0.797420000000     0.882580000000     0.344753   
C94      C      0.455430000000     0.924320000000     0.946400000000     0.344721   
C95      C      0.453960000000     0.797390000000     0.882360000000     0.344766   
C96      C      0.455420000000     0.924290000000     0.818640000000     0.34454    
C97      C      0.458120000000     0.998120000000     0.742020000000     0.0350792  
C98      C      0.526720000000     0.998290000000     0.742320000000     0.0351328  
C99      C      0.511780000000     0.968460000000     0.773180000000     0.0352221  
C100     C      0.443190000000     0.968290000000     0.772880000000     0.0352336  
C101     C      0.458230000000     0.998370000000     0.522910000000     0.0351641  
C102     C      0.526580000000     0.998030000000     0.523230000000     0.035075   
C103     C      0.511660000000     0.968220000000     0.992280000000     0.0351688  
C104     C      0.443310000000     0.968560000000     0.991970000000     0.0351426  
C105     C      0.225400000000     0.702620000000     0.916580000000     0.0348939  
C106     C      0.225070000000     0.702510000000     0.848830000000     0.0349693  
C107     C      0.265600000000     0.743020000000     0.848780000000     0.0349141  
C108     C      0.265930000000     0.743120000000     0.916530000000     0.0349478  
C109     C      0.744870000000     0.264060000000     0.666270000000     0.0348877  
C110     C      0.744450000000     0.264000000000     0.598510000000     0.0348848  
C111     C      0.703910000000     0.223490000000     0.598570000000     0.0349464  
C112     C      0.704330000000     0.223550000000     0.666320000000     0.0349619  
C113     C      0.970190000000     0.441650000000     0.742020000000     0.0349327  
C114     C      0.969910000000     0.510000000000     0.742080000000     0.0352267  
C115     C      0.999720000000     0.524950000000     0.773050000000     0.0347485  
C116     C      0.000010000000     0.456610000000     0.772990000000     0.0354554  
C117     C      0.969880000000     0.509990000000     0.522950000000     0.0352882  
C118     C      0.970110000000     0.441620000000     0.522940000000     0.0353091  
C119     C      0.999960000000     0.456600000000     0.992110000000     0.0347596  
C120     C      0.999740000000     0.524970000000     0.992120000000     0.0346784  
C121     C      0.463510000000     0.702340000000     0.848480000000     0.0348582  
C122     C      0.464150000000     0.702700000000     0.916230000000     0.0349993  
C123     C      0.464120000000     0.743220000000     0.916220000000     0.0348641  
C124     C      0.463470000000     0.742850000000     0.848470000000     0.0350026  
C125     C      0.225580000000     0.504970000000     0.916690000000     0.0349058  
C126     C      0.225190000000     0.504550000000     0.848940000000     0.0349537  
C127     C      0.265730000000     0.504540000000     0.848910000000     0.0348946  
C128     C      0.266120000000     0.504960000000     0.916660000000     0.0349881  
C129     C      0.704170000000     0.462030000000     0.666340000000     0.0349147  
C130     C      0.703730000000     0.461630000000     0.598590000000     0.0349298  
C131     C      0.744280000000     0.461630000000     0.598530000000     0.0349289  
C132     C      0.744710000000     0.462030000000     0.666280000000     0.0349228  
C133     C      0.505710000000     0.223350000000     0.599090000000     0.0349263  
C134     C      0.506470000000     0.223740000000     0.666850000000     0.0348286  
C135     C      0.506430000000     0.264250000000     0.666850000000     0.0350052  
C136     C      0.505670000000     0.263860000000     0.599100000000     0.0349153  
C137     C      0.458150000000     0.441560000000     0.523000000000     0.0351825  
C138     C      0.526570000000     0.510080000000     0.523330000000     0.0351545  
C139     C      0.511690000000     0.525030000000     0.992390000000     0.0352324  
C140     C      0.443280000000     0.456510000000     0.992070000000     0.0351568  
C141     C      0.443160000000     0.456640000000     0.772950000000     0.0352114  
C142     C      0.511850000000     0.524870000000     0.773320000000     0.035205   
C143     C      0.526740000000     0.509920000000     0.742440000000     0.0351651  
C144     C      0.458050000000     0.441680000000     0.742080000000     0.0351677  
Cd1      Cd     0.545160000000     0.422800000000     0.132780000000     0.51357    
Cd2      Cd     0.424710000000     0.543770000000     0.382590000000     0.513559   
Cd3      Cd     0.864250000000     0.422770000000     0.132320000000     0.51355    
Cd4      Cd     0.105630000000     0.543830000000     0.382770000000     0.513572   
Cd5      Cd     0.545320000000     0.103940000000     0.132730000000     0.513507   
Cd6      Cd     0.424570000000     0.862650000000     0.382470000000     0.513546   
Cd7      Cd     0.545160000000     0.422800000000     0.632770000000     0.513566   
Cd8      Cd     0.424710000000     0.543770000000     0.882590000000     0.513557   
Cd9      Cd     0.864250000000     0.422770000000     0.632320000000     0.513541   
Cd10     Cd     0.105630000000     0.543830000000     0.882770000000     0.513586   
Cd11     Cd     0.545330000000     0.103940000000     0.632730000000     0.5135     
Cd12     Cd     0.424570000000     0.862650000000     0.882470000000     0.513525   
H1       H      0.435770000000     0.008950000000     0.230610000000     0.0511249  
H2       H      0.559990000000     0.009260000000     0.231160000000     0.0511129  
H3       H      0.534140000000     0.957620000000     0.284580000000     0.0510628  
H4       H      0.409920000000     0.957320000000     0.284030000000     0.0510811  
H5       H      0.435970000000     0.009400000000     0.034090000000     0.0511114  
H6       H      0.559740000000     0.008800000000     0.034670000000     0.0511016  
H7       H      0.533910000000     0.957190000000     0.481100000000     0.0511025  
H8       H      0.410150000000     0.957790000000     0.480530000000     0.0510818  
H9       H      0.210930000000     0.687630000000     0.444060000000     0.0507962  
H10      H      0.210330000000     0.687440000000     0.321370000000     0.0508073  
H11      H      0.280510000000     0.757570000000     0.321290000000     0.0507774  
H12      H      0.281110000000     0.757750000000     0.443990000000     0.0507725  
H13      H      0.759640000000     0.279120000000     0.193720000000     0.050781   
H14      H      0.758880000000     0.279000000000     0.071020000000     0.0507827  
H15      H      0.688700000000     0.208880000000     0.071120000000     0.0507648  
H16      H      0.689460000000     0.208990000000     0.193820000000     0.0507699  
H17      H      0.959410000000     0.408480000000     0.230670000000     0.051127   
H18      H      0.958900000000     0.532240000000     0.230780000000     0.0510501  
H19      H      0.010510000000     0.558130000000     0.284400000000     0.0513129  
H20      H      0.011020000000     0.434370000000     0.284290000000     0.0510916  
H21      H      0.958890000000     0.532240000000     0.034230000000     0.0510045  
H22      H      0.959290000000     0.408420000000     0.034210000000     0.0510292  
H23      H      0.010960000000     0.434350000000     0.480840000000     0.051329   
H24      H      0.010550000000     0.558160000000     0.480860000000     0.0513248  
H25      H      0.462810000000     0.687160000000     0.321020000000     0.0507874  
H26      H      0.463990000000     0.687820000000     0.443710000000     0.0507679  
H27      H      0.463930000000     0.757960000000     0.443680000000     0.0507862  
H28      H      0.462760000000     0.757300000000     0.320990000000     0.050767   
H29      H      0.211130000000     0.505580000000     0.444170000000     0.0507787  
H30      H      0.210430000000     0.504820000000     0.321470000000     0.0507803  
H31      H      0.280620000000     0.504810000000     0.321430000000     0.0507919  
H32      H      0.281320000000     0.505570000000     0.444120000000     0.0507813  
H33      H      0.689300000000     0.461760000000     0.193840000000     0.0507791  
H34      H      0.688510000000     0.461030000000     0.071140000000     0.0507649  
H35      H      0.758700000000     0.461020000000     0.071040000000     0.05077    
H36      H      0.759490000000     0.461750000000     0.193730000000     0.0507667  
H37      H      0.505850000000     0.208600000000     0.071620000000     0.0507774  
H38      H      0.507240000000     0.209300000000     0.194310000000     0.0508049  
H39      H      0.507170000000     0.279440000000     0.194320000000     0.0507749  
H40      H      0.505790000000     0.278740000000     0.071630000000     0.0507912  
H41      H      0.435850000000     0.408310000000     0.034170000000     0.0511041  
H42      H      0.559740000000     0.532390000000     0.034760000000     0.0510893  
H43      H      0.533990000000     0.558270000000     0.481220000000     0.051089   
H44      H      0.410100000000     0.434200000000     0.480630000000     0.0510983  
H45      H      0.409870000000     0.434440000000     0.284090000000     0.0511142  
H46      H      0.534260000000     0.558010000000     0.284750000000     0.0510738  
H47      H      0.560030000000     0.532120000000     0.231300000000     0.0511017  
H48      H      0.435640000000     0.408550000000     0.230640000000     0.0510929  
H49      H      0.435770000000     0.008950000000     0.730620000000     0.051124   
H50      H      0.559990000000     0.009260000000     0.731160000000     0.0511147  
H51      H      0.534140000000     0.957630000000     0.784580000000     0.0510655  
H52      H      0.409920000000     0.957320000000     0.784030000000     0.0510843  
H53      H      0.435970000000     0.009400000000     0.534090000000     0.0511236  
H54      H      0.559740000000     0.008800000000     0.534670000000     0.0511233  
H55      H      0.533920000000     0.957200000000     0.981100000000     0.0511013  
H56      H      0.410150000000     0.957790000000     0.980530000000     0.0511054  
H57      H      0.210930000000     0.687630000000     0.944060000000     0.0507989  
H58      H      0.210330000000     0.687440000000     0.821370000000     0.0507767  
H59      H      0.280510000000     0.757560000000     0.821290000000     0.050791   
H60      H      0.281110000000     0.757750000000     0.943990000000     0.0507782  
H61      H      0.759640000000     0.279120000000     0.693720000000     0.0507816  
H62      H      0.758870000000     0.279000000000     0.571020000000     0.0507753  
H63      H      0.688700000000     0.208880000000     0.571120000000     0.0507639  
H64      H      0.689460000000     0.208990000000     0.693820000000     0.0507709  
H65      H      0.959410000000     0.408480000000     0.730670000000     0.0511158  
H66      H      0.958900000000     0.532240000000     0.730780000000     0.0510541  
H67      H      0.010510000000     0.558130000000     0.784400000000     0.0513376  
H68      H      0.011020000000     0.434370000000     0.784280000000     0.0510927  
H69      H      0.958880000000     0.532240000000     0.534230000000     0.0510289  
H70      H      0.959290000000     0.408430000000     0.534210000000     0.0510214  
H71      H      0.010960000000     0.434350000000     0.980840000000     0.0513235  
H72      H      0.010550000000     0.558160000000     0.980860000000     0.0513368  
H73      H      0.462820000000     0.687160000000     0.821020000000     0.0507846  
H74      H      0.463990000000     0.687820000000     0.943710000000     0.0507648  
H75      H      0.463930000000     0.757960000000     0.943680000000     0.0507975  
H76      H      0.462760000000     0.757300000000     0.820990000000     0.0507461  
H77      H      0.211130000000     0.505580000000     0.944170000000     0.0507984  
H78      H      0.210430000000     0.504820000000     0.821480000000     0.0507828  
H79      H      0.280620000000     0.504800000000     0.821430000000     0.0508065  
H80      H      0.281320000000     0.505560000000     0.944120000000     0.050772   
H81      H      0.689300000000     0.461760000000     0.693840000000     0.0507934  
H82      H      0.688510000000     0.461030000000     0.571140000000     0.0507665  
H83      H      0.758700000000     0.461020000000     0.571040000000     0.0507713  
H84      H      0.759490000000     0.461750000000     0.693730000000     0.0507781  
H85      H      0.505850000000     0.208600000000     0.571620000000     0.0507956  
H86      H      0.507230000000     0.209300000000     0.694310000000     0.050809   
H87      H      0.507170000000     0.279440000000     0.694320000000     0.0507539  
H88      H      0.505790000000     0.278740000000     0.571630000000     0.0507913  
H89      H      0.435850000000     0.408310000000     0.534170000000     0.0511082  
H90      H      0.559740000000     0.532390000000     0.534760000000     0.0510909  
H91      H      0.533990000000     0.558280000000     0.981220000000     0.0510894  
H92      H      0.410100000000     0.434200000000     0.980630000000     0.0511076  
H93      H      0.409870000000     0.434440000000     0.784090000000     0.0511042  
H94      H      0.534260000000     0.558010000000     0.784750000000     0.0510729  
H95      H      0.560030000000     0.532120000000     0.731300000000     0.0511051  
H96      H      0.435640000000     0.408550000000     0.730640000000     0.051098   
N1       N      0.499850000000     0.013040000000     0.226820000000    -0.160785   
N2       N      0.470060000000     0.953540000000     0.288380000000    -0.160868   
N3       N      0.499820000000     0.013030000000     0.038460000000    -0.16082    
N4       N      0.470060000000     0.953560000000     0.476740000000    -0.160824   
N5       N      0.206210000000     0.681410000000     0.382720000000    -0.161028   
N6       N      0.286930000000     0.762080000000     0.382630000000    -0.161069   
N7       N      0.763680000000     0.285180000000     0.132370000000    -0.161036   
N8       N      0.682960000000     0.204510000000     0.132480000000    -0.161047   
N9       N      0.955220000000     0.468390000000     0.226640000000    -0.16082    
N10      N      0.014690000000     0.498220000000     0.288430000000    -0.160752   
N11      N      0.955150000000     0.468360000000     0.038290000000    -0.16089    
N12      N      0.014700000000     0.498230000000     0.476780000000    -0.160594   
N13      N      0.461700000000     0.681370000000     0.382380000000    -0.160994   
N14      N      0.461640000000     0.762050000000     0.382350000000    -0.161091   
N15      N      0.206350000000     0.506900000000     0.382820000000    -0.161116   
N16      N      0.287090000000     0.506880000000     0.382760000000    -0.161068   
N17      N      0.682790000000     0.459700000000     0.132500000000    -0.161004   
N18      N      0.763520000000     0.459690000000     0.132380000000    -0.161067   
N19      N      0.508250000000     0.204530000000     0.132950000000    -0.161065   
N20      N      0.508180000000     0.285210000000     0.132960000000    -0.161076   
N21      N      0.499760000000     0.468380000000     0.038550000000    -0.160866   
N22      N      0.470090000000     0.498210000000     0.476840000000    -0.160843   
N23      N      0.470100000000     0.498200000000     0.288490000000    -0.160853   
N24      N      0.499800000000     0.468360000000     0.226900000000    -0.160852   
N25      N      0.499850000000     0.013040000000     0.726820000000    -0.160752   
N26      N      0.470060000000     0.953540000000     0.788380000000    -0.160838   
N27      N      0.499820000000     0.013030000000     0.538460000000    -0.160802   
N28      N      0.470060000000     0.953560000000     0.976730000000    -0.160837   
N29      N      0.206210000000     0.681420000000     0.882720000000    -0.161056   
N30      N      0.286930000000     0.762080000000     0.882630000000    -0.161031   
N31      N      0.763680000000     0.285180000000     0.632370000000    -0.161038   
N32      N      0.682960000000     0.204510000000     0.632480000000    -0.161048   
N33      N      0.955220000000     0.468380000000     0.726640000000    -0.160806   
N34      N      0.014700000000     0.498220000000     0.788430000000    -0.160734   
N35      N      0.955150000000     0.468350000000     0.538290000000    -0.160896   
N36      N      0.014700000000     0.498230000000     0.976780000000    -0.16058    
N37      N      0.461700000000     0.681370000000     0.882380000000    -0.161037   
N38      N      0.461640000000     0.762040000000     0.882340000000    -0.161032   
N39      N      0.206350000000     0.506900000000     0.882820000000    -0.161101   
N40      N      0.287090000000     0.506880000000     0.882770000000    -0.161088   
N41      N      0.682780000000     0.459700000000     0.632500000000    -0.161056   
N42      N      0.763530000000     0.459690000000     0.632380000000    -0.161125   
N43      N      0.508250000000     0.204530000000     0.632950000000    -0.161035   
N44      N      0.508180000000     0.285210000000     0.632970000000    -0.161081   
N45      N      0.499760000000     0.468380000000     0.538550000000    -0.160844   
N46      N      0.470090000000     0.498210000000     0.976840000000    -0.160839   
N47      N      0.470100000000     0.498190000000     0.788490000000    -0.160836   
N48      N      0.499800000000     0.468360000000     0.726900000000    -0.160847   
O1       O      0.617860000000     0.446250000000     0.101790000000    -0.242067   
O2       O      0.521790000000     0.350080000000     0.163730000000    -0.242229   
O3       O      0.552680000000     0.477740000000     0.083890000000    -0.242148   
O4       O      0.552850000000     0.477600000000     0.181940000000    -0.242061   
O5       O      0.490260000000     0.415420000000     0.181610000000    -0.242262   
O6       O      0.490350000000     0.415300000000     0.083590000000    -0.241989   
O7       O      0.618260000000     0.446670000000     0.163470000000    -0.241973   
O8       O      0.521070000000     0.349730000000     0.102060000000    -0.241978   
O9       O      0.448140000000     0.616500000000     0.351620000000    -0.242084   
O10      O      0.351630000000     0.519900000000     0.351850000000    -0.241976   
O11      O      0.479510000000     0.551280000000     0.431790000000    -0.242058   
O12      O      0.417040000000     0.488960000000     0.333440000000    -0.242018   
O13      O      0.479630000000     0.551150000000     0.333770000000    -0.242168   
O14      O      0.417170000000     0.488840000000     0.431490000000    -0.242147   
O15      O      0.448760000000     0.616830000000     0.413300000000    -0.241965   
O16      O      0.351990000000     0.520320000000     0.413520000000    -0.242187   
O17      O      0.911500000000     0.477650000000     0.181430000000    -0.242153   
O18      O      0.911440000000     0.477630000000     0.083360000000    -0.242208   
O19      O      0.815200000000     0.446610000000     0.163170000000    -0.242013   
O20      O      0.815300000000     0.349900000000     0.163160000000    -0.242148   
O21      O      0.814930000000     0.349840000000     0.101490000000    -0.24209    
O22      O      0.814810000000     0.446270000000     0.101500000000    -0.242156   
O23      O      0.911740000000     0.415370000000     0.181370000000    -0.24212    
O24      O      0.911650000000     0.415330000000     0.083360000000    -0.242164   
O25      O      0.058160000000     0.551230000000     0.333710000000    -0.242015   
O26      O      0.058410000000     0.488960000000     0.431720000000    -0.24215    
O27      O      0.154630000000     0.616680000000     0.351920000000    -0.242025   
O28      O      0.154700000000     0.519970000000     0.351980000000    -0.242033   
O29      O      0.155050000000     0.520340000000     0.413650000000    -0.242071   
O30      O      0.154910000000     0.616770000000     0.413600000000    -0.242      
O31      O      0.058410000000     0.488950000000     0.333650000000    -0.24198    
O32      O      0.058220000000     0.551260000000     0.431720000000    -0.242133   
O33      O      0.521930000000     0.153310000000     0.163710000000    -0.242188   
O34      O      0.618440000000     0.153100000000     0.163440000000    -0.241976   
O35      O      0.490500000000     0.056770000000     0.083530000000    -0.241926   
O36      O      0.490410000000     0.056560000000     0.181580000000    -0.242098   
O37      O      0.552920000000     0.056720000000     0.181850000000    -0.242037   
O38      O      0.552770000000     0.056460000000     0.083820000000    -0.242195   
O39      O      0.521210000000     0.152930000000     0.102030000000    -0.241953   
O40      O      0.618050000000     0.153090000000     0.101760000000    -0.242099   
O41      O      0.417110000000     0.910120000000     0.431380000000    -0.24214    
O42      O      0.479490000000     0.910020000000     0.333620000000    -0.24219    
O43      O      0.351800000000     0.813520000000     0.413390000000    -0.242134   
O44      O      0.448620000000     0.813640000000     0.413220000000    -0.242039   
O45      O      0.448020000000     0.813290000000     0.351550000000    -0.242138   
O46      O      0.351500000000     0.813460000000     0.351720000000    -0.242042   
O47      O      0.479390000000     0.909830000000     0.431670000000    -0.242058   
O48      O      0.416990000000     0.909870000000     0.333350000000    -0.242084   
O49      O      0.617860000000     0.446260000000     0.601790000000    -0.242179   
O50      O      0.521780000000     0.350080000000     0.663730000000    -0.242195   
O51      O      0.552680000000     0.477740000000     0.583890000000    -0.242158   
O52      O      0.552850000000     0.477600000000     0.681940000000    -0.242047   
O53      O      0.490260000000     0.415420000000     0.681610000000    -0.24224    
O54      O      0.490350000000     0.415300000000     0.583590000000    -0.242063   
O55      O      0.618270000000     0.446670000000     0.663470000000    -0.241967   
O56      O      0.521060000000     0.349730000000     0.602060000000    -0.24197    
O57      O      0.448140000000     0.616500000000     0.851630000000    -0.242205   
O58      O      0.351630000000     0.519910000000     0.851850000000    -0.242085   
O59      O      0.479510000000     0.551280000000     0.931790000000    -0.242062   
O60      O      0.417040000000     0.488960000000     0.833440000000    -0.242008   
O61      O      0.479630000000     0.551150000000     0.833770000000    -0.242156   
O62      O      0.417170000000     0.488840000000     0.931490000000    -0.242153   
O63      O      0.448760000000     0.616840000000     0.913300000000    -0.242045   
O64      O      0.351980000000     0.520320000000     0.913520000000    -0.242179   
O65      O      0.911490000000     0.477650000000     0.681430000000    -0.242082   
O66      O      0.911440000000     0.477630000000     0.583360000000    -0.242145   
O67      O      0.815190000000     0.446610000000     0.663170000000    -0.242082   
O68      O      0.815300000000     0.349900000000     0.663160000000    -0.242147   
O69      O      0.814930000000     0.349840000000     0.601490000000    -0.242087   
O70      O      0.814810000000     0.446270000000     0.601500000000    -0.242203   
O71      O      0.911740000000     0.415370000000     0.681370000000    -0.242089   
O72      O      0.911650000000     0.415330000000     0.583360000000    -0.242157   
O73      O      0.058160000000     0.551230000000     0.833710000000    -0.242026   
O74      O      0.058410000000     0.488960000000     0.931710000000    -0.242109   
O75      O      0.154630000000     0.616680000000     0.851920000000    -0.242064   
O76      O      0.154700000000     0.519970000000     0.851980000000    -0.242032   
O77      O      0.155050000000     0.520340000000     0.913650000000    -0.242073   
O78      O      0.154910000000     0.616780000000     0.913590000000    -0.242122   
O79      O      0.058410000000     0.488950000000     0.833650000000    -0.242051   
O80      O      0.058220000000     0.551260000000     0.931720000000    -0.242107   
O81      O      0.521930000000     0.153310000000     0.663710000000    -0.242167   
O82      O      0.618440000000     0.153100000000     0.663440000000    -0.241986   
O83      O      0.490500000000     0.056770000000     0.583520000000    -0.242017   
O84      O      0.490410000000     0.056560000000     0.681580000000    -0.242136   
O85      O      0.552920000000     0.056720000000     0.681850000000    -0.242097   
O86      O      0.552770000000     0.056460000000     0.583820000000    -0.242159   
O87      O      0.521210000000     0.152930000000     0.602030000000    -0.241933   
O88      O      0.618050000000     0.153090000000     0.601760000000    -0.242113   
O89      O      0.417110000000     0.910120000000     0.931380000000    -0.242158   
O90      O      0.479490000000     0.910020000000     0.833620000000    -0.242154   
O91      O      0.351800000000     0.813520000000     0.913390000000    -0.242105   
O92      O      0.448620000000     0.813640000000     0.913220000000    -0.24193    
O93      O      0.448020000000     0.813300000000     0.851550000000    -0.24213    
O94      O      0.351500000000     0.813460000000     0.851710000000    -0.241942   
O95      O      0.479390000000     0.909830000000     0.931670000000    -0.242075   
O96      O      0.416980000000     0.909870000000     0.833350000000    -0.241985   


