data_structure

_audit_creation_method RASPA-1.0
_audit_creation_date 2023-5-22
_audit_author_name 'Poobodin Mano'

_cell_length_a    25.3944
_cell_length_b    27.5028
_cell_length_c    25.3943
_cell_angle_alpha 90
_cell_angle_beta  90
_cell_angle_gamma 90
_cell_volume      17735.8

_symmetry_cell_setting          triclinic
_symmetry_space_group_name_Hall 'P 1'
_symmetry_space_group_name_H-M  'P 1'
_symmetry_Int_Tables_number     1

_symmetry_equiv_pos_as_xyz 'x,y,z'

loop_
_atom_site_label
_atom_site_type_symbol
_atom_site_fract_x
_atom_site_fract_y
_atom_site_fract_z
_atom_site_charge
C1       C      0.939120000000     0.400850000000     0.939190000000     0.347189   
C2       C      0.811260000000     0.400900000000     0.811320000000     0.347234   
C3       C      0.939050000000     0.272960000000     0.811330000000     0.347362   
C4       C      0.811200000000     0.273000000000     0.939190000000     0.347236   
C5       C      0.061330000000     0.522930000000     0.061290000000     0.347282   
C6       C      0.189140000000     0.650880000000     0.061310000000     0.347193   
C7       C      0.061250000000     0.650860000000     0.189100000000     0.34729    
C8       C      0.189130000000     0.522970000000     0.189180000000     0.34714    
C9       C      0.311160000000     0.900860000000     0.811230000000     0.347374   
C10      C      0.439010000000     0.900910000000     0.939100000000     0.347289   
C11      C      0.311220000000     0.772980000000     0.939100000000     0.347241   
C12      C      0.439070000000     0.773000000000     0.811250000000     0.347295   
C13      C      0.689030000000     0.150910000000     0.061330000000     0.347351   
C14      C      0.561160000000     0.150860000000     0.189160000000     0.3473     
C15      C      0.561160000000     0.023000000000     0.061250000000     0.347203   
C16      C      0.689000000000     0.022960000000     0.189110000000     0.347234   
C17      C      0.311240000000     0.400850000000     0.311340000000     0.347206   
C18      C      0.311150000000     0.272930000000     0.439180000000     0.347212   
C19      C      0.439050000000     0.272920000000     0.311390000000     0.347327   
C20      C      0.439030000000     0.400840000000     0.439220000000     0.347351   
C21      C      0.561220000000     0.650880000000     0.689110000000     0.347356   
C22      C      0.689090000000     0.522980000000     0.689180000000     0.347282   
C23      C      0.561230000000     0.522940000000     0.561310000000     0.347256   
C24      C      0.689070000000     0.650830000000     0.561260000000     0.34724    
C25      C      0.939060000000     0.772940000000     0.311220000000     0.347296   
C26      C      0.811170000000     0.772900000000     0.439020000000     0.347312   
C27      C      0.938960000000     0.900850000000     0.439070000000     0.347262   
C28      C      0.811170000000     0.900840000000     0.311200000000     0.347239   
C29      C      0.061110000000     0.150850000000     0.689110000000     0.34736    
C30      C      0.188920000000     0.022910000000     0.689110000000     0.347284   
C31      C      0.061100000000     0.022950000000     0.561240000000     0.347315   
C32      C      0.188980000000     0.150830000000     0.561300000000     0.347179   
C33      C      0.001870000000     0.964530000000     0.446270000000     0.0353085  
C34      C      0.967310000000     0.928420000000     0.523160000000     0.0352633  
C35      C      0.998180000000     0.959280000000     0.554050000000     0.0352696  
C36      C      0.032750000000     0.995390000000     0.477150000000     0.0352678  
C37      C      0.773140000000     0.678390000000     0.532860000000     0.0352618  
C38      C      0.696230000000     0.714460000000     0.498290000000     0.0352905  
C39      C      0.727100000000     0.745310000000     0.467380000000     0.0352343  
C40      C      0.804010000000     0.709250000000     0.501960000000     0.0353146  
C41      C      0.303950000000     0.209250000000     0.502080000000     0.0353115  
C42      C      0.227060000000     0.245380000000     0.467530000000     0.0352134  
C43      C      0.196180000000     0.214520000000     0.498400000000     0.0353092  
C44      C      0.273060000000     0.178380000000     0.532950000000     0.0352401  
C45      C      0.467410000000     0.428410000000     0.523290000000     0.0352511  
C46      C      0.501950000000     0.464510000000     0.446380000000     0.0353176  
C47      C      0.532850000000     0.495380000000     0.477250000000     0.0352209  
C48      C      0.498310000000     0.459280000000     0.554160000000     0.03534    
C49      C      0.717360000000     0.995370000000     0.273180000000     0.0352847  
C50      C      0.751920000000     0.959290000000     0.196270000000     0.0353094  
C51      C      0.782800000000     0.928420000000     0.227130000000     0.035228   
C52      C      0.748240000000     0.964500000000     0.304040000000     0.03531    
C53      C      0.553990000000     0.214470000000     0.252140000000     0.0353359  
C54      C      0.477080000000     0.178440000000     0.217520000000     0.035235   
C55      C      0.446210000000     0.209290000000     0.248420000000     0.0353014  
C56      C      0.523120000000     0.245320000000     0.283050000000     0.0352141  
C57      C      0.282750000000     0.928390000000     0.727150000000     0.0352412  
C58      C      0.248210000000     0.964500000000     0.804060000000     0.0352798  
C59      C      0.217300000000     0.995350000000     0.773190000000     0.0352942  
C60      C      0.251850000000     0.959250000000     0.696280000000     0.0353172  
C61      C      0.446260000000     0.709240000000     0.748440000000     0.0354047  
C62      C      0.523150000000     0.745510000000     0.782800000000     0.0352124  
C63      C      0.554030000000     0.714640000000     0.751920000000     0.0353203  
C64      C      0.477130000000     0.678370000000     0.717550000000     0.0351654  
C65      C      0.501860000000     0.964640000000     0.946280000000     0.035296   
C66      C      0.467420000000     0.928420000000     0.023180000000     0.0352005  
C67      C      0.498310000000     0.959290000000     0.054060000000     0.0353558  
C68      C      0.532740000000     0.995500000000     0.977160000000     0.0352787  
C69      C      0.023150000000     0.745380000000     0.282900000000     0.0352518  
C70      C      0.946270000000     0.709290000000     0.248290000000     0.0352907  
C71      C      0.977160000000     0.678430000000     0.217420000000     0.0352421  
C72      C      0.054040000000     0.714520000000     0.252020000000     0.035348   
C73      C      0.196290000000     0.714540000000     0.998380000000     0.0353093  
C74      C      0.273210000000     0.678470000000     0.032940000000     0.035222   
C75      C      0.304070000000     0.709330000000     0.002040000000     0.0353035  
C76      C      0.227150000000     0.745400000000     0.967480000000     0.0352402  
C77      C      0.252050000000     0.459310000000     0.196370000000     0.0353201  
C78      C      0.217450000000     0.495390000000     0.273260000000     0.0352526  
C79      C      0.248330000000     0.464520000000     0.304150000000     0.0353188  
C80      C      0.282930000000     0.428440000000     0.227260000000     0.0352454  
C81      C      0.023110000000     0.245390000000     0.782930000000     0.0352271  
C82      C      0.946190000000     0.209290000000     0.748420000000     0.0353455  
C83      C      0.977050000000     0.178420000000     0.717520000000     0.0352197  
C84      C      0.053970000000     0.214520000000     0.752030000000     0.0353244  
C85      C      0.804010000000     0.209280000000     0.002030000000     0.0352772  
C86      C      0.727110000000     0.245510000000     0.967620000000     0.0352187  
C87      C      0.696230000000     0.214650000000     0.998500000000     0.0353408  
C88      C      0.773120000000     0.178420000000     0.032910000000     0.0352407  
C89      C      0.748430000000     0.464640000000     0.804140000000     0.0352741  
C90      C      0.782830000000     0.428400000000     0.727240000000     0.0352409  
C91      C      0.751940000000     0.459260000000     0.696360000000     0.0353011  
C92      C      0.717540000000     0.495500000000     0.773260000000     0.0352556  
C93      C      0.967510000000     0.428410000000     0.023260000000     0.0352335  
C94      C      0.002070000000     0.464490000000     0.946350000000     0.0353096  
C95      C      0.032980000000     0.495340000000     0.977220000000     0.0352401  
C96      C      0.998410000000     0.459260000000     0.054130000000     0.0352877  
Cd1      Cd     0.875160000000     0.336930000000     0.875260000000     0.513274   
Cd2      Cd     0.125220000000     0.586910000000     0.125220000000     0.513265   
Cd3      Cd     0.375120000000     0.836940000000     0.875160000000     0.513278   
Cd4      Cd     0.625080000000     0.086940000000     0.125200000000     0.513267   
Cd5      Cd     0.375120000000     0.336880000000     0.375290000000     0.513283   
Cd6      Cd     0.625150000000     0.586910000000     0.625230000000     0.513283   
Cd7      Cd     0.875090000000     0.836880000000     0.375120000000     0.513273   
Cd8      Cd     0.125020000000     0.086880000000     0.625190000000     0.513278   
H1       H      0.004590000000     0.967890000000     0.403810000000     0.0506811  
H2       H      0.942010000000     0.902490000000     0.543050000000     0.0506846  
H3       H      0.995460000000     0.955920000000     0.596500000000     0.0506963  
H4       H      0.058040000000     0.021320000000     0.457270000000     0.0506579  
H5       H      0.793040000000     0.652490000000     0.558180000000     0.0506763  
H6       H      0.653770000000     0.717800000000     0.495570000000     0.0506812  
H7       H      0.707200000000     0.771210000000     0.442080000000     0.0506886  
H8       H      0.846470000000     0.705900000000     0.504680000000     0.0506747  
H9       H      0.346410000000     0.205880000000     0.504800000000     0.0506725  
H10      H      0.207180000000     0.271310000000     0.442240000000     0.0506919  
H11      H      0.153720000000     0.217880000000     0.495680000000     0.0506723  
H12      H      0.292940000000     0.152450000000     0.558240000000     0.0506817  
H13      H      0.442120000000     0.402490000000     0.543190000000     0.0506825  
H14      H      0.504660000000     0.467860000000     0.403920000000     0.0506692  
H15      H      0.558140000000     0.521290000000     0.457350000000     0.0506888  
H16      H      0.495600000000     0.455930000000     0.596620000000     0.0506689  
H17      H      0.692060000000     0.021280000000     0.293080000000     0.050649   
H18      H      0.754630000000     0.955950000000     0.153800000000     0.0506917  
H19      H      0.808100000000     0.902510000000     0.207230000000     0.0506919  
H20      H      0.745520000000     0.967840000000     0.346510000000     0.0506834  
H21      H      0.596450000000     0.217800000000     0.254890000000     0.0506665  
H22      H      0.457190000000     0.152550000000     0.192180000000     0.0506863  
H23      H      0.403750000000     0.205960000000     0.245680000000     0.050675   
H24      H      0.543010000000     0.271210000000     0.308380000000     0.0506927  
H25      H      0.308060000000     0.902480000000     0.707260000000     0.0506945  
H26      H      0.245500000000     0.967860000000     0.846520000000     0.0506876  
H27      H      0.192000000000     0.021260000000     0.793090000000     0.0506439  
H28      H      0.254560000000     0.955890000000     0.653820000000     0.050684   
H29      H      0.403790000000     0.705820000000     0.745790000000     0.0506561  
H30      H      0.543040000000     0.771500000000     0.808010000000     0.0506926  
H31      H      0.596490000000     0.718070000000     0.754560000000     0.0506739  
H32      H      0.457250000000     0.652380000000     0.692340000000     0.0507105  
H33      H      0.504530000000     0.968040000000     0.903820000000     0.0506894  
H34      H      0.442180000000     0.902460000000     0.043070000000     0.0506957  
H35      H      0.495630000000     0.955890000000     0.096520000000     0.0506718  
H36      H      0.557990000000     0.021460000000     0.957280000000     0.050651   
H37      H      0.043030000000     0.771300000000     0.308210000000     0.0506861  
H38      H      0.903810000000     0.705940000000     0.245550000000     0.0506832  
H39      H      0.957280000000     0.652510000000     0.192100000000     0.0506884  
H40      H      0.096500000000     0.717880000000     0.254770000000     0.0506621  
H41      H      0.153830000000     0.717880000000     0.995660000000     0.0506761  
H42      H      0.293110000000     0.652560000000     0.058240000000     0.050689   
H43      H      0.346530000000     0.705990000000     0.004760000000     0.050676   
H44      H      0.207250000000     0.771310000000     0.942170000000     0.0506903  
H45      H      0.254790000000     0.455960000000     0.153910000000     0.0506684  
H46      H      0.192150000000     0.521310000000     0.293150000000     0.0506765  
H47      H      0.245590000000     0.467870000000     0.346610000000     0.0506687  
H48      H      0.308230000000     0.402530000000     0.207370000000     0.0506766  
H49      H      0.043020000000     0.271310000000     0.808210000000     0.0506846  
H50      H      0.903730000000     0.205930000000     0.745730000000     0.0506606  
H51      H      0.957140000000     0.152500000000     0.692240000000     0.0506838  
H52      H      0.096430000000     0.217880000000     0.754720000000     0.0506682  
H53      H      0.846460000000     0.205870000000     0.004700000000     0.0506755  
H54      H      0.707230000000     0.271490000000     0.942380000000     0.0506886  
H55      H      0.653770000000     0.218060000000     0.995830000000     0.0506651  
H56      H      0.793000000000     0.152440000000     0.058150000000     0.0506835  
H57      H      0.745770000000     0.468050000000     0.846590000000     0.0506809  
H58      H      0.808060000000     0.402430000000     0.707360000000     0.0506838  
H59      H      0.754590000000     0.455850000000     0.653900000000     0.0506754  
H60      H      0.692300000000     0.521470000000     0.793150000000     0.05068    
H61      H      0.942200000000     0.402500000000     0.043150000000     0.0506894  
H62      H      0.004790000000     0.467830000000     0.903890000000     0.0506792  
H63      H      0.058280000000     0.521250000000     0.957320000000     0.0506878  
H64      H      0.995690000000     0.455920000000     0.096590000000     0.050682   
N1       N      0.969230000000     0.931120000000     0.469350000000    -0.161223   
N2       N      0.030820000000     0.992690000000     0.530960000000    -0.161205   
N3       N      0.719340000000     0.681080000000     0.530950000000    -0.161213   
N4       N      0.780910000000     0.742630000000     0.469300000000    -0.161244   
N5       N      0.280870000000     0.242670000000     0.469450000000    -0.161229   
N6       N      0.219260000000     0.181100000000     0.531030000000    -0.161215   
N7       N      0.469320000000     0.431110000000     0.469490000000    -0.161229   
N8       N      0.530940000000     0.492680000000     0.531060000000    -0.161266   
N9       N      0.719270000000     0.992690000000     0.219370000000    -0.161239   
N10      N      0.780890000000     0.931110000000     0.280940000000    -0.161235   
N11      N      0.530890000000     0.181110000000     0.219460000000    -0.16124    
N12      N      0.469310000000     0.242660000000     0.281100000000    -0.161247   
N13      N      0.280860000000     0.931100000000     0.780960000000    -0.161256   
N14      N      0.219210000000     0.992650000000     0.719380000000    -0.161216   
N15      N      0.469340000000     0.742730000000     0.780970000000    -0.161239   
N16      N      0.530940000000     0.681150000000     0.719380000000    -0.161219   
N17      N      0.469280000000     0.931180000000     0.969370000000    -0.161227   
N18      N      0.530890000000     0.992740000000     0.030970000000    -0.16123    
N19      N      0.969350000000     0.742690000000     0.280950000000    -0.161255   
N20      N      0.030970000000     0.681130000000     0.219360000000    -0.161257   
N21      N      0.219400000000     0.681150000000     0.031020000000    -0.161207   
N22      N      0.280960000000     0.742720000000     0.969390000000    -0.161235   
N23      N      0.219400000000     0.492700000000     0.219460000000    -0.161219   
N24      N      0.280980000000     0.431130000000     0.281060000000    -0.161223   
N25      N      0.969300000000     0.242690000000     0.781040000000    -0.161268   
N26      N      0.030860000000     0.181120000000     0.719400000000    -0.161257   
N27      N      0.780920000000     0.242750000000     0.969460000000    -0.161252   
N28      N      0.719310000000     0.181180000000     0.031060000000    -0.161245   
N29      N      0.780990000000     0.431170000000     0.781040000000    -0.161213   
N30      N      0.719370000000     0.492730000000     0.719450000000    -0.161269   
N31      N      0.969420000000     0.431100000000     0.969450000000    -0.161234   
N32      N      0.031060000000     0.492660000000     0.031030000000    -0.161253   
O1       O      0.810450000000     0.402530000000     0.861170000000    -0.24296    
O2       O      0.861050000000     0.271370000000     0.940000000000    -0.242975   
O3       O      0.939990000000     0.402420000000     0.889330000000    -0.242905   
O4       O      0.889200000000     0.271400000000     0.810480000000    -0.243002   
O5       O      0.959210000000     0.304250000000     0.841890000000    -0.24334    
O6       O      0.908520000000     0.369580000000     0.959340000000    -0.24327    
O7       O      0.841770000000     0.369550000000     0.791180000000    -0.243267   
O8       O      0.791070000000     0.304350000000     0.908660000000    -0.243232   
O9       O      0.139280000000     0.652430000000     0.060420000000    -0.242916   
O10      O      0.158530000000     0.554250000000     0.209310000000    -0.243249   
O11      O      0.091920000000     0.554200000000     0.041140000000    -0.243307   
O12      O      0.041130000000     0.619580000000     0.158510000000    -0.243348   
O13      O      0.111110000000     0.652430000000     0.190010000000    -0.242929   
O14      O      0.060440000000     0.521380000000     0.111150000000    -0.24294    
O15      O      0.209290000000     0.619600000000     0.091890000000    -0.243285   
O16      O      0.190030000000     0.521410000000     0.139320000000    -0.242897   
O17      O      0.439840000000     0.902520000000     0.889250000000    -0.242975   
O18      O      0.389220000000     0.771350000000     0.810450000000    -0.242993   
O19      O      0.310300000000     0.902430000000     0.861080000000    -0.243009   
O20      O      0.291060000000     0.804260000000     0.908510000000    -0.243237   
O21      O      0.361070000000     0.771430000000     0.939970000000    -0.242961   
O22      O      0.341740000000     0.869580000000     0.791080000000    -0.243335   
O23      O      0.408490000000     0.869570000000     0.959240000000    -0.243284   
O24      O      0.459210000000     0.804360000000     0.841740000000    -0.243317   
O25      O      0.541010000000     0.119610000000     0.158540000000    -0.243323   
O26      O      0.689870000000     0.021410000000     0.139260000000    -0.242975   
O27      O      0.639190000000     0.152530000000     0.060500000000    -0.243067   
O28      O      0.591690000000     0.054340000000     0.041110000000    -0.24325    
O29      O      0.560340000000     0.021380000000     0.111100000000    -0.242989   
O30      O      0.709170000000     0.119560000000     0.091840000000    -0.243308   
O31      O      0.611010000000     0.152410000000     0.190060000000    -0.242987   
O32      O      0.658410000000     0.054240000000     0.209270000000    -0.243232   
O33      O      0.291020000000     0.304230000000     0.408610000000    -0.243285   
O34      O      0.439900000000     0.402400000000     0.389370000000    -0.243017   
O35      O      0.310340000000     0.402410000000     0.361200000000    -0.242905   
O36      O      0.389190000000     0.271380000000     0.310480000000    -0.242953   
O37      O      0.459190000000     0.304170000000     0.342000000000    -0.24337    
O38      O      0.341830000000     0.369570000000     0.291210000000    -0.243295   
O39      O      0.361010000000     0.271350000000     0.440070000000    -0.242918   
O40      O      0.408460000000     0.369560000000     0.459370000000    -0.243349   
O41      O      0.658570000000     0.554320000000     0.709310000000    -0.243323   
O42      O      0.639220000000     0.652390000000     0.560390000000    -0.242961   
O43      O      0.541070000000     0.619520000000     0.658620000000    -0.24331    
O44      O      0.560360000000     0.521380000000     0.611170000000    -0.24291    
O45      O      0.591800000000     0.554230000000     0.541160000000    -0.243284   
O46      O      0.611060000000     0.652520000000     0.689910000000    -0.243065   
O47      O      0.689890000000     0.521350000000     0.639320000000    -0.242936   
O48      O      0.709220000000     0.619560000000     0.591860000000    -0.243275   
O49      O      0.861020000000     0.771350000000     0.439910000000    -0.242991   
O50      O      0.810290000000     0.902390000000     0.361060000000    -0.242931   
O51      O      0.889210000000     0.771370000000     0.310320000000    -0.24299    
O52      O      0.908390000000     0.869550000000     0.459210000000    -0.243269   
O53      O      0.939850000000     0.902410000000     0.389220000000    -0.24299    
O54      O      0.959190000000     0.804220000000     0.341820000000    -0.243282   
O55      O      0.791010000000     0.804170000000     0.408430000000    -0.243292   
O56      O      0.841750000000     0.869560000000     0.291050000000    -0.243294   
O57      O      0.158340000000     0.054190000000     0.709260000000    -0.24332    
O58      O      0.139120000000     0.152410000000     0.560420000000    -0.242908   
O59      O      0.110960000000     0.152410000000     0.689970000000    -0.243017   
O60      O      0.060220000000     0.021370000000     0.611090000000    -0.243012   
O61      O      0.091680000000     0.054230000000     0.541100000000    -0.243348   
O62      O      0.040950000000     0.119560000000     0.658550000000    -0.24333    
O63      O      0.189800000000     0.021350000000     0.639260000000    -0.243003   
O64      O      0.209110000000     0.119530000000     0.591870000000    -0.24328    


