data_structure

_audit_creation_method RASPA-1.0
_audit_creation_date 2023-5-22
_audit_author_name 'Poobodin Mano'

_cell_length_a    25.6713
_cell_length_b    26.8945
_cell_length_c    25.9379
_cell_angle_alpha 90
_cell_angle_beta  90
_cell_angle_gamma 90
_cell_volume      17908

_symmetry_cell_setting          triclinic
_symmetry_space_group_name_Hall 'P 1'
_symmetry_space_group_name_H-M  'P 1'
_symmetry_Int_Tables_number     1

_symmetry_equiv_pos_as_xyz 'x,y,z'

loop_
_atom_site_label
_atom_site_type_symbol
_atom_site_fract_x
_atom_site_fract_y
_atom_site_fract_z
_atom_site_charge
C1       C      0.935260000000     0.415840000000     0.927030000000     0.345026   
C2       C      0.807950000000     0.406930000000     0.798250000000     0.342451   
C3       C      0.944430000000     0.288930000000     0.799770000000     0.348389   
C4       C      0.809690000000     0.287800000000     0.930330000000     0.350075   
C5       C      0.060340000000     0.659580000000     0.183920000000     0.347542   
C6       C      0.185950000000     0.536510000000     0.180160000000     0.34331    
C7       C      0.057930000000     0.537450000000     0.049920000000     0.344754   
C8       C      0.186250000000     0.665370000000     0.052490000000     0.348337   
C9       C      0.440540000000     0.782590000000     0.806660000000     0.345261   
C10      C      0.308110000000     0.786050000000     0.927760000000     0.342621   
C11      C      0.435740000000     0.913470000000     0.931600000000     0.348259   
C12      C      0.310820000000     0.908490000000     0.797610000000     0.343418   
C13      C      0.688340000000     0.164200000000     0.052510000000     0.345019   
C14      C      0.555980000000     0.039280000000     0.052130000000     0.342773   
C15      C      0.690550000000     0.031970000000     0.172510000000     0.347673   
C16      C      0.558040000000     0.158100000000     0.182090000000     0.345123   
C17      C      0.306210000000     0.413530000000     0.303970000000     0.345978   
C18      C      0.435510000000     0.279080000000     0.305710000000     0.347861   
C19      C      0.430270000000     0.418170000000     0.426740000000     0.346839   
C20      C      0.311260000000     0.281920000000     0.428740000000     0.341035   
C21      C      0.682250000000     0.662310000000     0.550510000000     0.342768   
C22      C      0.681910000000     0.529430000000     0.679780000000     0.347425   
C23      C      0.564120000000     0.661340000000     0.684330000000     0.346759   
C24      C      0.555440000000     0.537240000000     0.549660000000     0.342492   
C25      C      0.811340000000     0.909990000000     0.296710000000     0.343318   
C26      C      0.804330000000     0.786880000000     0.430250000000     0.348191   
C27      C      0.936790000000     0.782520000000     0.304340000000     0.344153   
C28      C      0.933290000000     0.909400000000     0.432980000000     0.347496   
C29      C      0.064710000000     0.165850000000     0.676240000000     0.343665   
C30      C      0.188330000000     0.027010000000     0.671500000000     0.34683    
C31      C      0.059080000000     0.030060000000     0.553880000000     0.341922   
C32      C      0.188590000000     0.162450000000     0.553850000000     0.344794   
C33      C      0.039890000000     0.989740000000     0.474730000000     0.0288929  
C34      C      0.983810000000     0.979130000000     0.545660000000    -0.00494474 
C35      C      0.007720000000     0.959560000000     0.444900000000     0.0336476  
C36      C      0.950910000000     0.948420000000     0.516020000000     0.119154   
C37      C      0.902970000000     0.927670000000     0.542430000000    -0.210228   
C38      C      0.756040000000     0.676960000000     0.497550000000     0.0290072  
C39      C      0.697130000000     0.742120000000     0.513960000000    -0.00546756 
C40      C      0.786370000000     0.708850000000     0.467760000000     0.0328746  
C41      C      0.727400000000     0.774870000000     0.483930000000     0.118237   
C42      C      0.708470000000     0.828040000000     0.479340000000    -0.210013   
C43      C      0.236610000000     0.231440000000     0.442310000000     0.0280158  
C44      C      0.296570000000     0.243360000000     0.509830000000    -0.00613765 
C45      C      0.206030000000     0.201960000000     0.474460000000     0.0322607  
C46      C      0.266130000000     0.213590000000     0.542810000000     0.116846   
C47      C      0.285810000000     0.206380000000     0.597390000000    -0.208679   
C48      C      0.540820000000     0.491140000000     0.472880000000     0.028421   
C49      C      0.473720000000     0.498670000000     0.534230000000    -0.00573812 
C50      C      0.508670000000     0.461520000000     0.442350000000     0.0327002  
C51      C      0.440580000000     0.469260000000     0.503590000000     0.118273   
C52      C      0.385840000000     0.460520000000     0.523510000000    -0.209954   
C53      C      0.792960000000     0.988800000000     0.259450000000     0.0285085  
C54      C      0.741690000000     0.919450000000     0.237310000000    -0.00559182 
C55      C      0.762280000000     0.018860000000     0.227890000000     0.0333842  
C56      C      0.710660000000     0.949190000000     0.204900000000     0.118957   
C57      C      0.667200000000     0.923380000000     0.175760000000    -0.210437   
C58      C      0.484550000000     0.210310000000     0.194500000000     0.0292933  
C59      C      0.539460000000     0.192090000000     0.264670000000    -0.00506653 
C60      C      0.454140000000     0.240420000000     0.226160000000     0.0333057  
C61      C      0.508940000000     0.222220000000     0.297260000000     0.119296   
C62      C      0.525110000000     0.225400000000     0.353330000000    -0.210852   
C63      C      0.229840000000     0.946030000000     0.776700000000     0.0290021  
C64      C      0.301460000000     0.956120000000     0.721020000000    -0.00482506 
C65      C      0.199610000000     0.975730000000     0.744450000000     0.0330235  
C66      C      0.271260000000     0.985810000000     0.687730000000     0.118215   
C67      C      0.297710000000     0.005500000000     0.639660000000    -0.209304   
C68      C      0.454110000000     0.733930000000     0.731710000000     0.0290541  
C69      C      0.520980000000     0.740390000000     0.793440000000    -0.00477633 
C70      C      0.485790000000     0.703920000000     0.701350000000     0.0328902  
C71      C      0.553510000000     0.709810000000     0.763170000000     0.118191   
C72      C      0.607580000000     0.699040000000     0.783670000000    -0.210222   
C73      C      0.523690000000     0.013410000000     0.970540000000     0.0288675  
C74      C      0.495340000000     0.972940000000     0.045950000000    -0.00568613 
C75      C      0.493080000000     0.981550000000     0.940880000000     0.0330116  
C76      C      0.464360000000     0.940380000000     0.016560000000     0.118691   
C77      C      0.431990000000     0.902620000000     0.045800000000    -0.210471   
C78      C      0.950560000000     0.733870000000     0.229240000000     0.0289357  
C79      C      0.015880000000     0.737940000000     0.292790000000    -0.00499871 
C80      C      0.981890000000     0.702600000000     0.199760000000     0.0327201  
C81      C      0.048050000000     0.706350000000     0.263410000000     0.118543   
C82      C      0.100300000000     0.692320000000     0.286350000000    -0.210152   
C83      C      0.277810000000     0.706300000000     0.953370000000     0.0287773  
C84      C      0.246050000000     0.777840000000     0.995120000000    -0.00547972 
C85      C      0.246990000000     0.676580000000     0.985120000000     0.0331516  
C86      C      0.214790000000     0.748350000000     0.027580000000     0.118544   
C87      C      0.181330000000     0.775310000000     0.066770000000    -0.210173   
C88      C      0.267460000000     0.501060000000     0.203320000000     0.0288283  
C89      C      0.192440000000     0.481250000000     0.251260000000    -0.00548767 
C90      C      0.297050000000     0.470070000000     0.234910000000     0.03293    
C91      C      0.221790000000     0.449910000000     0.283600000000     0.118688   
C92      C      0.192870000000     0.423940000000     0.326840000000    -0.21062    
C93      C      0.989130000000     0.214900000000     0.690360000000     0.0290331  
C94      C      0.054830000000     0.212240000000     0.753580000000    -0.00532415 
C95      C      0.959430000000     0.245760000000     0.721950000000     0.0333968  
C96      C      0.025520000000     0.243820000000     0.785760000000     0.11935    
C97      C      0.049560000000     0.258170000000     0.836990000000    -0.210973   
C98      C      0.749640000000     0.176590000000     0.985130000000     0.0296113  
C99      C      0.716890000000     0.245560000000     0.030610000000    -0.00487646 
C100     C      0.779670000000     0.208240000000     0.954690000000     0.033433   
C101     C      0.747150000000     0.278040000000     0.000300000000     0.119867   
C102     C      0.742640000000     0.333140000000     0.011640000000    -0.210988   
C103     C      0.795950000000     0.476370000000     0.743180000000     0.0282283  
C104     C      0.724090000000     0.426110000000     0.764660000000    -0.00556094 
C105     C      0.763640000000     0.507000000000     0.714080000000     0.0322512  
C106     C      0.690890000000     0.456640000000     0.735120000000     0.11808    
C107     C      0.633680000000     0.442960000000     0.733730000000    -0.210294   
C108     C      0.025050000000     0.457980000000     0.027030000000     0.0289122  
C109     C      0.997800000000     0.528670000000     0.980830000000    -0.00496438 
C110     C      0.993860000000     0.428050000000     0.995950000000     0.0321434  
C111     C      0.965940000000     0.498920000000     0.949130000000     0.118308   
C112     C      0.934450000000     0.525240000000     0.907950000000    -0.21038    
Cd1      Cd     0.874910000000     0.348090000000     0.863580000000     0.50865    
Cd2      Cd     0.122880000000     0.599340000000     0.115000000000     0.509536   
Cd3      Cd     0.374670000000     0.848510000000     0.865540000000     0.509336   
Cd4      Cd     0.624040000000     0.099590000000     0.115000000000     0.509871   
Cd5      Cd     0.371840000000     0.348010000000     0.364610000000     0.509076   
Cd6      Cd     0.621750000000     0.596720000000     0.615580000000     0.508895   
Cd7      Cd     0.871280000000     0.847280000000     0.365420000000     0.509312   
Cd8      Cd     0.123750000000     0.096200000000     0.614220000000     0.509436   
H1       H      0.019430000000     0.953260000000     0.405260000000     0.0478301  
H2       H      0.074440000000     0.005180000000     0.456760000000     0.0480752  
H3       H      0.973590000000     0.986480000000     0.585540000000     0.0545096  
H4       H      0.904580000000     0.886430000000     0.542990000000     0.0969905  
H5       H      0.899810000000     0.940010000000     0.583200000000     0.0791834  
H6       H      0.867240000000     0.940770000000     0.522500000000     0.0965867  
H7       H      0.821210000000     0.693300000000     0.450450000000     0.0473026  
H8       H      0.768950000000     0.638790000000     0.501860000000     0.0486089  
H9       H      0.661930000000     0.756090000000     0.532050000000     0.0531626  
H10      H      0.699260000000     0.836790000000     0.438520000000     0.0975836  
H11      H      0.672340000000     0.834730000000     0.501880000000     0.0783615  
H12      H      0.738360000000     0.853990000000     0.494610000000     0.0957025  
H13      H      0.170640000000     0.186590000000     0.458080000000     0.0478456  
H14      H      0.223360000000     0.237530000000     0.403100000000     0.046601   
H15      H      0.332300000000     0.259500000000     0.524680000000     0.0515672  
H16      H      0.294490000000     0.166500000000     0.604400000000     0.0946079  
H17      H      0.322420000000     0.227220000000     0.604840000000     0.0767037  
H18      H      0.256610000000     0.220340000000     0.625450000000     0.0962286  
H19      H      0.524900000000     0.447770000000     0.406470000000     0.0468976  
H20      H      0.579910000000     0.498870000000     0.459180000000     0.0476717  
H21      H      0.459010000000     0.513100000000     0.570500000000     0.0537243  
H22      H      0.380240000000     0.420560000000     0.532680000000     0.0974977  
H23      H      0.377780000000     0.481680000000     0.559430000000     0.0783524  
H24      H      0.356820000000     0.473190000000     0.494620000000     0.0962238  
H25      H      0.772310000000     0.057990000000     0.225930000000     0.0475829  
H26      H      0.824980000000     0.005970000000     0.280100000000     0.0477825  
H27      H      0.732870000000     0.880100000000     0.240420000000     0.053946   
H28      H      0.671770000000     0.929480000000     0.133670000000     0.0980579  
H29      H      0.667440000000     0.882470000000     0.181770000000     0.0788053  
H30      H      0.628790000000     0.937150000000     0.189270000000     0.0980501  
H31      H      0.420950000000     0.258650000000     0.208490000000     0.047965   
H32      H      0.473380000000     0.206730000000     0.154350000000     0.0480741  
H33      H      0.573110000000     0.173190000000     0.280730000000     0.053968   
H34      H      0.492540000000     0.213440000000     0.378610000000     0.0971025  
H35      H      0.558580000000     0.200670000000     0.362300000000     0.0794908  
H36      H      0.537430000000     0.263900000000     0.362800000000     0.0992408  
H37      H      0.159550000000     0.982160000000     0.755970000000     0.0475849  
H38      H      0.211830000000     0.931130000000     0.811230000000     0.0477167  
H39      H      0.341780000000     0.948780000000     0.711000000000     0.0540512  
H40      H      0.299450000000     0.046730000000     0.640870000000     0.0952141  
H41      H      0.338460000000     0.992030000000     0.635930000000     0.0781677  
H42      H      0.276650000000     0.992620000000     0.604750000000     0.0970841  
H43      H      0.469380000000     0.690670000000     0.665340000000     0.0475317  
H44      H      0.415340000000     0.742400000000     0.717610000000     0.0478898  
H45      H      0.535680000000     0.754590000000     0.829800000000     0.0530895  
H46      H      0.637430000000     0.712460000000     0.756010000000     0.0972713  
H47      H      0.615230000000     0.718160000000     0.820880000000     0.0787835  
H48      H      0.612150000000     0.658560000000     0.790760000000     0.0962438  
H49      H      0.493980000000     0.986710000000     0.899420000000     0.0469319  
H50      H      0.546420000000     0.041570000000     0.950780000000     0.0476942  
H51      H      0.495540000000     0.968890000000     0.087590000000     0.0527188  
H52      H      0.446110000000     0.864450000000     0.037440000000     0.0973811  
H53      H      0.434450000000     0.907880000000     0.088220000000     0.0781464  
H54      H      0.390230000000     0.906460000000     0.035370000000     0.0980565  
H55      H      0.966240000000     0.690050000000     0.163160000000     0.0468463  
H56      H      0.912450000000     0.743590000000     0.214240000000     0.0476166  
H57      H      0.030040000000     0.751400000000     0.329660000000     0.0539723  
H58      H      0.132300000000     0.708430000000     0.262900000000     0.0964854  
H59      H      0.105120000000     0.706600000000     0.326270000000     0.078899   
H60      H      0.104030000000     0.651250000000     0.288620000000     0.0974995  
H61      H      0.249140000000     0.636700000000     0.979250000000     0.0475677  
H62      H      0.302020000000     0.688110000000     0.924760000000     0.0475174  
H63      H      0.245080000000     0.817940000000     0.999760000000     0.0533327  
H64      H      0.193070000000     0.764600000000     0.106440000000     0.0965884  
H65      H      0.185490000000     0.816360000000     0.064160000000     0.0788341  
H66      H      0.139550000000     0.766870000000     0.060040000000     0.0980741  
H67      H      0.338300000000     0.467180000000     0.226370000000     0.0476663  
H68      H      0.287100000000     0.520460000000     0.172240000000     0.0476189  
H69      H      0.151000000000     0.485170000000     0.258490000000     0.053609   
H70      H      0.209700000000     0.434640000000     0.364680000000     0.0965282  
H71      H      0.150990000000     0.434310000000     0.328090000000     0.0793174  
H72      H      0.194500000000     0.383030000000     0.321380000000     0.100218   
H73      H      0.921910000000     0.257650000000     0.707220000000     0.0476231  
H74      H      0.973220000000     0.204540000000     0.653140000000     0.0480184  
H75      H      0.092590000000     0.199390000000     0.766870000000     0.0537282  
H76      H      0.025840000000     0.243110000000     0.869190000000     0.0997647  
H77      H      0.089570000000     0.243060000000     0.841690000000     0.0798512  
H78      H      0.052890000000     0.299240000000     0.839890000000     0.0979225  
H79      H      0.803750000000     0.191100000000     0.925300000000     0.047451   
H80      H      0.751880000000     0.136960000000     0.977720000000     0.0480844  
H81      H      0.692220000000     0.261160000000     0.060490000000     0.0546806  
H82      H      0.728390000000     0.353220000000     0.977010000000     0.0979398  
H83      H      0.714490000000     0.341050000000     0.043130000000     0.0800745  
H84      H      0.780880000000     0.348060000000     0.024280000000     0.0982606  
H85      H      0.781800000000     0.538380000000     0.694910000000     0.0468418  
H86      H      0.836990000000     0.485740000000     0.745270000000     0.0461217  
H87      H      0.707620000000     0.394290000000     0.784570000000     0.0529364  
H88      H      0.621930000000     0.433210000000     0.693800000000     0.0977151  
H89      H      0.624760000000     0.410170000000     0.758260000000     0.0786762  
H90      H      0.609770000000     0.474210000000     0.748630000000     0.0962274  
H91      H      0.994130000000     0.388440000000     0.003870000000     0.0463879  
H92      H      0.047560000000     0.440190000000     0.057230000000     0.0476647  
H93      H      0.998730000000     0.568510000000     0.974250000000     0.0539041  
H94      H      0.892270000000     0.517990000000     0.913670000000     0.0972426  
H95      H      0.939590000000     0.566250000000     0.909220000000     0.0791891  
H96      H      0.947110000000     0.512850000000     0.869090000000     0.0988799  
N1       N      0.027810000000     0.999630000000     0.524920000000    -0.155628   
N2       N      0.963240000000     0.938790000000     0.464930000000    -0.177558   
N3       N      0.711590000000     0.693630000000     0.520650000000    -0.156058   
N4       N      0.772520000000     0.757670000000     0.460560000000    -0.17812    
N5       N      0.281710000000     0.252140000000     0.460050000000    -0.156678   
N6       N      0.220340000000     0.192650000000     0.524550000000    -0.177475   
N7       N      0.523510000000     0.509130000000     0.518980000000    -0.156229   
N8       N      0.458940000000     0.449730000000     0.457570000000    -0.177998   
N9       N      0.782220000000     0.939340000000     0.264560000000    -0.156213   
N10      N      0.720710000000     0.999730000000     0.201110000000    -0.177891   
N11      N      0.527390000000     0.186610000000     0.213650000000    -0.156247   
N12      N      0.466240000000     0.247220000000     0.277240000000    -0.177882   
N13      N      0.280790000000     0.936750000000     0.765250000000    -0.156132   
N14      N      0.219900000000     0.996210000000     0.700310000000    -0.17782    
N15      N      0.471740000000     0.752270000000     0.777550000000    -0.156251   
N16      N      0.535350000000     0.691520000000     0.716530000000    -0.177675   
N17      N      0.524980000000     0.008860000000     0.022920000000    -0.156016   
N18      N      0.463970000000     0.944560000000     0.963290000000    -0.178166   
N19      N      0.967650000000     0.751620000000     0.275530000000    -0.156125   
N20      N      0.030800000000     0.689140000000     0.216000000000    -0.178102   
N21      N      0.277350000000     0.756800000000     0.958480000000    -0.156005   
N22      N      0.215580000000     0.697020000000     0.022370000000    -0.177893   
N23      N      0.215240000000     0.506430000000     0.211420000000    -0.156132   
N24      N      0.274750000000     0.444160000000     0.274840000000    -0.177659   
N25      N      0.036400000000     0.197700000000     0.706480000000    -0.156254   
N26      N      0.976790000000     0.259920000000     0.769830000000    -0.178006   
N27      N      0.718250000000     0.195270000000     0.022900000000    -0.155875   
N28      N      0.778850000000     0.258840000000     0.961870000000    -0.17809    
N29      N      0.776140000000     0.436170000000     0.768600000000    -0.156322   
N30      N      0.711270000000     0.497560000000     0.709610000000    -0.178153   
N31      N      0.027090000000     0.508140000000     0.019350000000    -0.156315   
N32      N      0.964470000000     0.447890000000     0.956810000000    -0.177853   
O1       O      0.856430000000     0.415130000000     0.801970000000    -0.244284   
O2       O      0.836780000000     0.269180000000     0.894320000000    -0.250254   
O3       O      0.908540000000     0.430110000000     0.888910000000    -0.254431   
O4       O      0.956470000000     0.303500000000     0.844500000000    -0.25728    
O5       O      0.899660000000     0.302240000000     0.784510000000    -0.249142   
O6       O      0.933790000000     0.369480000000     0.935780000000    -0.24863    
O7       O      0.790600000000     0.370610000000     0.824270000000    -0.248742   
O8       O      0.813300000000     0.334470000000     0.935020000000    -0.257895   
O9       O      0.137380000000     0.541860000000     0.186810000000    -0.246521   
O10      O      0.186220000000     0.618670000000     0.045620000000    -0.246481   
O11      O      0.107570000000     0.649380000000     0.192780000000    -0.256372   
O12      O      0.085470000000     0.519560000000     0.085890000000    -0.247898   
O13      O      0.060650000000     0.584120000000     0.044020000000    -0.247052   
O14      O      0.042110000000     0.641490000000     0.142510000000    -0.248255   
O15      O      0.205640000000     0.560510000000     0.142840000000    -0.246253   
O16      O      0.157460000000     0.680470000000     0.088730000000    -0.259842   
O17      O      0.338600000000     0.767830000000     0.894250000000    -0.247006   
O18      O      0.292590000000     0.888840000000     0.838140000000    -0.24678    
O19      O      0.455920000000     0.801760000000     0.848670000000    -0.248791   
O20      O      0.412580000000     0.875180000000     0.947940000000    -0.257341   
O21      O      0.431580000000     0.921120000000     0.883570000000    -0.249044   
O22      O      0.394630000000     0.793610000000     0.792810000000    -0.245413   
O23      O      0.308190000000     0.833020000000     0.931580000000    -0.243818   
O24      O      0.358610000000     0.900520000000     0.788930000000    -0.245336   
O25      O      0.586090000000     0.071340000000     0.032160000000    -0.244563   
O26      O      0.598390000000     0.136070000000     0.198470000000    -0.248364   
O27      O      0.689160000000     0.117360000000     0.047010000000    -0.245081   
O28      O      0.700360000000     0.078110000000     0.169770000000    -0.246859   
O29      O      0.650530000000     0.018170000000     0.148170000000    -0.256007   
O30      O      0.657930000000     0.180640000000     0.086970000000    -0.248413   
O31      O      0.556980000000     0.036350000000     0.100860000000    -0.24617    
O32      O      0.548130000000     0.152640000000     0.134580000000    -0.247081   
O33      O      0.396260000000     0.300800000000     0.286430000000    -0.248372   
O34      O      0.352470000000     0.302800000000     0.444640000000    -0.249072   
O35      O      0.354610000000     0.409150000000     0.295230000000    -0.247126   
O36      O      0.448350000000     0.400340000000     0.385170000000    -0.248501   
O37      O      0.384910000000     0.403770000000     0.438310000000    -0.257453   
O38      O      0.289170000000     0.387480000000     0.340820000000    -0.255643   
O39      O      0.444660000000     0.289580000000     0.352300000000    -0.257746   
O40      O      0.298630000000     0.290930000000     0.382430000000    -0.246514   
O41      O      0.701320000000     0.568130000000     0.659610000000    -0.248022   
O42      O      0.540730000000     0.553320000000     0.593140000000    -0.245556   
O43      O      0.694740000000     0.617240000000     0.557550000000    -0.242102   
O44      O      0.609130000000     0.645440000000     0.695540000000    -0.258417   
O45      O      0.546660000000     0.647180000000     0.641030000000    -0.244171   
O46      O      0.641270000000     0.676740000000     0.573230000000    -0.24992    
O47      O      0.634260000000     0.522270000000     0.670020000000    -0.259629   
O48      O      0.601460000000     0.548580000000     0.536510000000    -0.247772   
O49      O      0.794200000000     0.831720000000     0.419650000000    -0.256647   
O50      O      0.945280000000     0.902160000000     0.386120000000    -0.243805   
O51      O      0.801350000000     0.864310000000     0.303130000000    -0.24657    
O52      O      0.892470000000     0.796810000000     0.288840000000    -0.246845   
O53      O      0.950780000000     0.798510000000     0.348140000000    -0.245573   
O54      O      0.849550000000     0.926850000000     0.322180000000    -0.24841    
O55      O      0.846050000000     0.770230000000     0.410580000000    -0.25054    
O56      O      0.892260000000     0.887700000000     0.447900000000    -0.258617   
O57      O      0.142580000000     0.038210000000     0.685740000000    -0.24699    
O58      O      0.146640000000     0.144240000000     0.536200000000    -0.244051   
O59      O      0.107690000000     0.147730000000     0.691050000000    -0.248785   
O60      O      0.048430000000     0.040860000000     0.600240000000    -0.245923   
O61      O      0.100100000000     0.049570000000     0.535740000000    -0.244547   
O62      O      0.049180000000     0.152030000000     0.632160000000    -0.247524   
O63      O      0.202980000000     0.047110000000     0.629940000000    -0.257802   
O64      O      0.199290000000     0.150230000000     0.599690000000    -0.256707   


