data_structure

_audit_creation_method RASPA-1.0
_audit_creation_date 2023-5-22
_audit_author_name 'Poobodin Mano'

_cell_length_a    27.1711
_cell_length_b    25.4613
_cell_length_c    25.8204
_cell_angle_alpha 90
_cell_angle_beta  90
_cell_angle_gamma 90
_cell_volume      17862.9

_symmetry_cell_setting          triclinic
_symmetry_space_group_name_Hall 'P 1'
_symmetry_space_group_name_H-M  'P 1'
_symmetry_Int_Tables_number     1

_symmetry_equiv_pos_as_xyz 'x,y,z'

loop_
_atom_site_label
_atom_site_type_symbol
_atom_site_fract_x
_atom_site_fract_y
_atom_site_fract_z
_atom_site_charge
Br1      Br     0.014160000000     0.975080000000     0.372990000000    -0.168096   
Br2      Br     0.705370000000     0.883150000000     0.507070000000    -0.169708   
Br3      Br     0.271600000000     0.202070000000     0.600590000000    -0.173056   
Br4      Br     0.411310000000     0.557410000000     0.595200000000    -0.167099   
Br5      Br     0.791050000000     0.068760000000     0.327980000000    -0.165414   
Br6      Br     0.502450000000     0.135290000000     0.298080000000    -0.164229   
Br7      Br     0.224150000000     0.873160000000     0.707730000000    -0.171161   
Br8      Br     0.481610000000     0.732190000000     0.871440000000    -0.171202   
Br9      Br     0.473800000000     0.963090000000     0.118330000000    -0.16429    
Br10     Br     0.961920000000     0.711770000000     0.368780000000    -0.170495   
Br11     Br     0.216030000000     0.881150000000     0.017590000000    -0.171265   
Br12     Br     0.309590000000     0.568070000000     0.299870000000    -0.171841   
Br13     Br     0.989390000000     0.301420000000     0.622820000000    -0.173757   
Br14     Br     0.738520000000     0.372370000000     0.039630000000    -0.172172   
Br15     Br     0.611930000000     0.439310000000     0.696590000000    -0.169774   
Br16     Br     0.909740000000     0.600750000000     0.054590000000    -0.174667   
C1       C      0.902540000000     0.439860000000     0.931630000000     0.347985   
C2       C      0.775690000000     0.436630000000     0.800160000000     0.35051    
C3       C      0.903790000000     0.314390000000     0.802110000000     0.347853   
C4       C      0.777860000000     0.313190000000     0.935260000000     0.356096   
C5       C      0.024940000000     0.564070000000     0.051920000000     0.356161   
C6       C      0.152230000000     0.691860000000     0.048690000000     0.348795   
C7       C      0.028380000000     0.686570000000     0.181810000000     0.350302   
C8       C      0.155250000000     0.565090000000     0.181410000000     0.349569   
C9       C      0.274450000000     0.815620000000     0.927790000000     0.358118   
C10      C      0.278210000000     0.937300000000     0.801440000000     0.356772   
C11      C      0.407130000000     0.938820000000     0.931700000000     0.348427   
C12      C      0.412700000000     0.814130000000     0.806550000000     0.357186   
C13      C      0.657410000000     0.188810000000     0.057640000000     0.346594   
C14      C      0.527270000000     0.060050000000     0.057430000000     0.354883   
C15      C      0.661830000000     0.063350000000     0.180120000000     0.349303   
C16      C      0.523700000000     0.183120000000     0.182880000000     0.357892   
C17      C      0.279020000000     0.444030000000     0.303290000000     0.356322   
C18      C      0.278940000000     0.314180000000     0.432890000000     0.347479   
C19      C      0.400500000000     0.307560000000     0.301950000000     0.349419   
C20      C      0.402040000000     0.444610000000     0.428090000000     0.352899   
C21      C      0.652920000000     0.558510000000     0.677930000000     0.359523   
C22      C      0.523580000000     0.567040000000     0.550990000000     0.359797   
C23      C      0.533360000000     0.692600000000     0.681790000000     0.350525   
C24      C      0.653760000000     0.692000000000     0.550700000000     0.347114   
C25      C      0.907820000000     0.807800000000     0.307030000000     0.358729   
C26      C      0.784700000000     0.943000000000     0.303640000000     0.359855   
C27      C      0.777110000000     0.815340000000     0.430570000000     0.355895   
C28      C      0.914090000000     0.935580000000     0.431030000000     0.360483   
C29      C      0.028000000000     0.194400000000     0.679640000000     0.357516   
C30      C      0.155830000000     0.061560000000     0.681140000000     0.349613   
C31      C      0.033520000000     0.059220000000     0.554980000000     0.350631   
C32      C      0.158540000000     0.193000000000     0.558330000000     0.356921   
C33      C      0.962900000000     0.005580000000     0.543190000000     0.0387338  
C34      C      0.018360000000     0.017630000000     0.474130000000     0.00589472 
C35      C      0.933450000000     0.974180000000     0.511650000000     0.045245   
C36      C      0.988850000000     0.986370000000     0.442000000000     0.161756   
C37      C      0.715310000000     0.701060000000     0.486000000000     0.0372884  
C38      C      0.681970000000     0.776520000000     0.525330000000     0.00455635 
C39      C      0.746090000000     0.732620000000     0.456050000000     0.043082   
C40      C      0.712710000000     0.808620000000     0.495350000000     0.158806   
C41      C      0.200970000000     0.277410000000     0.453110000000     0.0379004  
C42      C      0.268410000000     0.261720000000     0.508230000000     0.00528355 
C43      C      0.171120000000     0.246950000000     0.485140000000     0.0442996  
C44      C      0.238730000000     0.230980000000     0.540690000000     0.160114   
C45      C      0.478900000000     0.485830000000     0.444390000000     0.0396126  
C46      C      0.413290000000     0.497810000000     0.502780000000     0.0072635  
C47      C      0.508970000000     0.516890000000     0.475610000000     0.0447471  
C48      C      0.443250000000     0.528980000000     0.534520000000     0.161224   
C49      C      0.695870000000     0.981040000000     0.204370000000     0.0386971  
C50      C      0.722220000000     0.058090000000     0.246500000000     0.00625355 
C51      C      0.726730000000     0.951270000000     0.235970000000     0.0445428  
C52      C      0.753610000000     0.028550000000     0.278250000000     0.160727   
C53      C      0.440490000000     0.288410000000     0.222330000000     0.0369911  
C54      C      0.448860000000     0.230370000000     0.292770000000     0.00478959 
C55      C      0.471360000000     0.256540000000     0.192770000000     0.0430719  
C56      C      0.480030000000     0.198140000000     0.263440000000     0.159505   
C57      C      0.211510000000     0.050900000000     0.751250000000     0.0388708  
C58      C      0.190700000000     0.978010000000     0.699580000000     0.00542763 
C59      C      0.242260000000     0.019170000000     0.781050000000     0.0437026  
C60      C      0.221370000000     0.945710000000     0.729430000000     0.159367   
C61      C      0.475110000000     0.761180000000     0.692790000000     0.0399732  
C62      C      0.505300000000     0.716240000000     0.765870000000     0.0063377  
C63      C      0.445160000000     0.791630000000     0.724700000000     0.0442215  
C64      C      0.475180000000     0.746540000000     0.798310000000     0.159699   
C65      C      0.461280000000     0.011060000000     0.944010000000     0.0372815  
C66      C      0.441760000000     0.956110000000     0.014410000000     0.00616251 
C67      C      0.491210000000     0.041310000000     0.976210000000     0.0422094  
C68      C      0.471720000000     0.986210000000     0.047090000000     0.158952   
C69      C      0.972150000000     0.756850000000     0.193600000000     0.0400921  
C70      C      0.994230000000     0.704170000000     0.264860000000     0.00645124 
C71      C      0.941850000000     0.786840000000     0.225520000000     0.0451213  
C72      C      0.963950000000     0.734230000000     0.297370000000     0.160816   
C73      C      0.207240000000     0.702220000000     0.977860000000     0.037508   
C74      C      0.185120000000     0.775700000000     0.028090000000     0.00509679 
C75      C      0.237870000000     0.733890000000     0.947800000000     0.0441301  
C76      C      0.215550000000     0.807930000000     0.997960000000     0.15962    
C77      C      0.178470000000     0.483120000000     0.217810000000     0.0367997  
C78      C      0.224580000000     0.558890000000     0.237260000000     0.00466564 
C79      C      0.210160000000     0.453130000000     0.248250000000     0.0424131  
C80      C      0.256440000000     0.529160000000     0.268320000000     0.159205   
C81      C      0.954030000000     0.239240000000     0.789090000000     0.0362109  
C82      C      0.946020000000     0.301740000000     0.722420000000     0.00391511 
C83      C      0.985170000000     0.209480000000     0.757810000000     0.042      
C84      C      0.977420000000     0.272180000000     0.690690000000     0.15864    
C85      C      0.707710000000     0.200950000000     0.983330000000     0.0360024  
C86      C      0.697980000000     0.270130000000     0.042950000000     0.00408844 
C87      C      0.737800000000     0.232790000000     0.952870000000     0.0421708  
C88      C      0.728440000000     0.302360000000     0.012790000000     0.158607   
C89      C      0.756870000000     0.516690000000     0.757440000000     0.0376712  
C90      C      0.702460000000     0.445080000000     0.750420000000     0.00521324 
C91      C      0.725520000000     0.546920000000     0.726850000000     0.0431245  
C92      C      0.670720000000     0.475100000000     0.719470000000     0.159317   
C93      C      0.981680000000     0.460970000000     0.964760000000     0.0366392  
C94      C      0.913140000000     0.512000000000     0.988880000000     0.00463448 
C95      C      0.012040000000     0.492770000000     0.994970000000     0.0420142  
C96      C      0.943280000000     0.544070000000     0.019510000000     0.159453   
Cd1      Cd     0.839370000000     0.375890000000     0.867140000000     0.519252   
Cd2      Cd     0.091710000000     0.626240000000     0.114810000000     0.519377   
Cd3      Cd     0.343550000000     0.876180000000     0.866510000000     0.523652   
Cd4      Cd     0.592670000000     0.124240000000     0.119590000000     0.521458   
Cd5      Cd     0.341000000000     0.376570000000     0.365750000000     0.519853   
Cd6      Cd     0.591640000000     0.626530000000     0.614880000000     0.521776   
Cd7      Cd     0.845440000000     0.875900000000     0.368190000000     0.525294   
Cd8      Cd     0.092840000000     0.127600000000     0.618980000000     0.52128    
H1       H      0.900170000000     0.958170000000     0.528660000000     0.0609969  
H2       H      0.951190000000     0.012090000000     0.582830000000     0.0586266  
H3       H      0.051970000000     0.034000000000     0.458180000000     0.0821671  
H4       H      0.770730000000     0.712920000000     0.429300000000     0.0602347  
H5       H      0.717620000000     0.658840000000     0.481000000000     0.0588252  
H6       H      0.656940000000     0.795150000000     0.552440000000     0.0807227  
H7       H      0.132870000000     0.242540000000     0.473920000000     0.0606258  
H8       H      0.184460000000     0.294950000000     0.419010000000     0.0585163  
H9       H      0.306830000000     0.266880000000     0.518500000000     0.0824709  
H10      H      0.546580000000     0.522960000000     0.462850000000     0.0584927  
H11      H      0.494560000000     0.469610000000     0.409210000000     0.0593958  
H12      H      0.375460000000     0.491180000000     0.514520000000     0.0831342  
H13      H      0.726910000000     0.909110000000     0.229950000000     0.0585278  
H14      H      0.673730000000     0.960600000000     0.175820000000     0.0613469  
H15      H      0.721190000000     0.100350000000     0.251730000000     0.0829885  
H16      H      0.479040000000     0.269030000000     0.153420000000     0.057283   
H17      H      0.425790000000     0.323650000000     0.204530000000     0.0579     
H18      H      0.440450000000     0.218730000000     0.332220000000     0.0820703  
H19      H      0.261710000000     0.037750000000     0.812830000000     0.0584191  
H20      H      0.208790000000     0.092160000000     0.761290000000     0.0605309  
H21      H      0.170840000000     0.960520000000     0.667460000000     0.0813337  
H22      H      0.422060000000     0.820790000000     0.706070000000     0.0613682  
H23      H      0.473790000000     0.768350000000     0.651400000000     0.0616095  
H24      H      0.528910000000     0.686840000000     0.783410000000     0.0820754  
H25      H      0.509920000000     0.074560000000     0.958840000000     0.0565225  
H26      H      0.458230000000     0.022330000000     0.903630000000     0.0577438  
H27      H      0.422560000000     0.922650000000     0.030820000000     0.0849417  
H28      H      0.922100000000     0.819110000000     0.207640000000     0.059141   
H29      H      0.974200000000     0.767280000000     0.152930000000     0.0616286  
H30      H      0.014410000000     0.671550000000     0.281580000000     0.0815033  
H31      H      0.257910000000     0.715070000000     0.916570000000     0.0603587  
H32      H      0.205100000000     0.660740000000     0.968550000000     0.058254   
H33      H      0.164660000000     0.793520000000     0.059610000000     0.0818937  
H34      H      0.202500000000     0.411420000000     0.251140000000     0.0567489  
H35      H      0.148240000000     0.463260000000     0.198610000000     0.057254   
H36      H      0.231410000000     0.600710000000     0.233510000000     0.0819184  
H37      H      0.999530000000     0.173290000000     0.774020000000     0.0560532  
H38      H      0.945870000000     0.224690000000     0.827620000000     0.0566594  
H39      H      0.931060000000     0.338120000000     0.707230000000     0.0803988  
H40      H      0.752490000000     0.215790000000     0.917590000000     0.0562067  
H41      H      0.700540000000     0.161220000000     0.970170000000     0.0566764  
H42      H      0.682710000000     0.286160000000     0.078410000000     0.0812669  
H43      H      0.736700000000     0.587000000000     0.718850000000     0.0569873  
H44      H      0.790410000000     0.534800000000     0.771560000000     0.0583437  
H45      H      0.692240000000     0.404850000000     0.759150000000     0.0809171  
H46      H      0.050930000000     0.483180000000     0.995880000000     0.0562008  
H47      H      0.998430000000     0.428670000000     0.943810000000     0.0563686  
H48      H      0.874090000000     0.520750000000     0.987210000000     0.084036   
N1       N      0.005090000000     0.027540000000     0.524280000000    -0.152016   
N2       N      0.945690000000     0.965000000000     0.460870000000    -0.172166   
N3       N      0.683490000000     0.723050000000     0.520740000000    -0.152292   
N4       N      0.745270000000     0.786340000000     0.460570000000    -0.172434   
N5       N      0.249560000000     0.284580000000     0.464610000000    -0.151861   
N6       N      0.189630000000     0.223370000000     0.528800000000    -0.172364   
N7       N      0.431250000000     0.476050000000     0.458210000000    -0.151575   
N8       N      0.491720000000     0.538120000000     0.520970000000    -0.172603   
N9       N      0.693360000000     0.034310000000     0.210000000000    -0.151319   
N10      N      0.755540000000     0.974550000000     0.273130000000    -0.172698   
N11      N      0.429680000000     0.275520000000     0.272410000000    -0.152609   
N12      N      0.491870000000     0.211810000000     0.213160000000    -0.172952   
N13      N      0.185850000000     0.030290000000     0.710560000000    -0.151613   
N14      N      0.247390000000     0.966600000000     0.770570000000    -0.172662   
N15      N      0.504820000000     0.723290000000     0.713370000000    -0.151259   
N16      N      0.444430000000     0.784190000000     0.777350000000    -0.172547   
N17      N      0.436670000000     0.968510000000     0.963160000000    -0.151656   
N18      N      0.496800000000     0.029160000000     0.027690000000    -0.172679   
N19      N      0.998380000000     0.715690000000     0.213310000000    -0.151029   
N20      N      0.937700000000     0.776130000000     0.277440000000    -0.172221   
N21      N      0.181310000000     0.723090000000     0.018230000000    -0.152374   
N22      N      0.242600000000     0.786620000000     0.957770000000    -0.172466   
N23      N      0.185870000000     0.535870000000     0.212160000000    -0.152496   
N24      N      0.249150000000     0.475710000000     0.273700000000    -0.17306    
N25      N      0.934470000000     0.285250000000     0.771340000000    -0.152494   
N26      N      0.997120000000     0.225550000000     0.708640000000    -0.173503   
N27      N      0.687650000000     0.219760000000     0.028140000000    -0.152224   
N28      N      0.748310000000     0.283510000000     0.967150000000    -0.173367   
N29      N      0.745210000000     0.465930000000     0.769340000000    -0.152469   
N30      N      0.682380000000     0.526600000000     0.707750000000    -0.173252   
N31      N      0.932340000000     0.470720000000     0.961700000000    -0.151935   
N32      N      0.993250000000     0.534290000000     0.022520000000    -0.17338    
O1       O      0.815520000000     0.454910000000     0.818140000000    -0.23534    
O2       O      0.793880000000     0.295770000000     0.892480000000    -0.236633   
O3       O      0.856880000000     0.448720000000     0.927080000000    -0.226501   
O4       O      0.884610000000     0.356980000000     0.786590000000    -0.237146   
O5       O      0.892940000000     0.300420000000     0.847840000000    -0.234291   
O6       O      0.918960000000     0.400940000000     0.906420000000    -0.238988   
O7       O      0.765580000000     0.389800000000     0.812850000000    -0.236522   
O8       O      0.790910000000     0.359490000000     0.946130000000    -0.218512   
O9       O      0.147090000000     0.643180000000     0.040290000000    -0.238109   
O10      O      0.162330000000     0.613620000000     0.173540000000    -0.235873   
O11      O      0.070830000000     0.555230000000     0.053060000000    -0.235887   
O12      O      0.033490000000     0.697140000000     0.134120000000    -0.225946   
O13      O      0.052780000000     0.647620000000     0.198550000000    -0.233489   
O14      O      0.010670000000     0.601760000000     0.079890000000    -0.219876   
O15      O      0.129190000000     0.709830000000     0.087400000000    -0.233526   
O16      O      0.118390000000     0.545120000000     0.158720000000    -0.236491   
O17      O      0.283760000000     0.888340000000     0.795990000000    -0.21653    
O18      O      0.406670000000     0.807430000000     0.854620000000    -0.216651   
O19      O      0.280930000000     0.864310000000     0.934090000000    -0.217039   
O20      O      0.383740000000     0.899350000000     0.948590000000    -0.227844   
O21      O      0.401320000000     0.949210000000     0.884080000000    -0.234288   
O22      O      0.300040000000     0.794910000000     0.892160000000    -0.231374   
O23      O      0.303110000000     0.957860000000     0.837710000000    -0.234709   
O24      O      0.386460000000     0.849900000000     0.786530000000    -0.234248   
O25      O      0.549480000000     0.099610000000     0.038890000000    -0.237243   
O26      O      0.547150000000     0.143850000000     0.199700000000    -0.214703   
O27      O      0.647860000000     0.141630000000     0.045580000000    -0.236662   
O28      O      0.634950000000     0.042590000000     0.145670000000    -0.230252   
O29      O      0.657110000000     0.112490000000     0.185870000000    -0.231593   
O30      O      0.637020000000     0.205750000000     0.098500000000    -0.233527   
O31      O      0.535550000000     0.050980000000     0.104730000000    -0.213808   
O32      O      0.532410000000     0.195150000000     0.136140000000    -0.238168   
O33      O      0.262620000000     0.335600000000     0.392070000000    -0.234586   
O34      O      0.417930000000     0.422960000000     0.387170000000    -0.235176   
O35      O      0.273280000000     0.394630000000     0.304940000000    -0.234414   
O36      O      0.383090000000     0.350240000000     0.284750000000    -0.237429   
O37      O      0.389880000000     0.296730000000     0.348460000000    -0.236165   
O38      O      0.313660000000     0.461750000000     0.330920000000    -0.218344   
O39      O      0.324110000000     0.321710000000     0.442480000000    -0.230994   
O40      O      0.357640000000     0.434940000000     0.439760000000    -0.230842   
O41      O      0.511930000000     0.585180000000     0.594800000000    -0.215567   
O42      O      0.624250000000     0.711160000000     0.583650000000    -0.234491   
O43      O      0.613130000000     0.543030000000     0.657760000000    -0.217452   
O44      O      0.532670000000     0.697420000000     0.632910000000    -0.228376   
O45      O      0.561560000000     0.657280000000     0.699630000000    -0.231958   
O46      O      0.664090000000     0.605920000000     0.668720000000    -0.240286   
O47      O      0.567310000000     0.576580000000     0.536820000000    -0.23596    
O48      O      0.654290000000     0.642360000000     0.547410000000    -0.234044   
O49      O      0.784050000000     0.893380000000     0.299780000000    -0.237033   
O50      O      0.876320000000     0.913650000000     0.450020000000    -0.230736   
O51      O      0.882930000000     0.844850000000     0.287210000000    -0.234886   
O52      O      0.806970000000     0.793890000000     0.399360000000    -0.232866   
O53      O      0.779130000000     0.864870000000     0.432270000000    -0.214472   
O54      O      0.903500000000     0.802670000000     0.355550000000    -0.213835   
O55      O      0.813790000000     0.961000000000     0.337400000000    -0.214988   
O56      O      0.919690000000     0.929530000000     0.382830000000    -0.214654   
O57      O      0.150010000000     0.109970000000     0.690860000000    -0.228272   
O58      O      0.113640000000     0.186720000000     0.546520000000    -0.228961   
O59      O      0.044650000000     0.151260000000     0.696660000000    -0.238994   
O60      O      0.021400000000     0.070580000000     0.601030000000    -0.237479   
O61      O      0.073290000000     0.079390000000     0.538870000000    -0.232056   
O62      O      0.041840000000     0.206360000000     0.634480000000    -0.218989   
O63      O      0.132280000000     0.043850000000     0.642520000000    -0.235544   
O64      O      0.172460000000     0.168990000000     0.598570000000    -0.217586   


