data_structure

_audit_creation_method RASPA-1.0
_audit_creation_date 2023-5-22
_audit_author_name 'Poobodin Mano'

_cell_length_a    25.2121
_cell_length_b    26.6573
_cell_length_c    26.6054
_cell_angle_alpha 90
_cell_angle_beta  90
_cell_angle_gamma 90
_cell_volume      17881.1

_symmetry_cell_setting          triclinic
_symmetry_space_group_name_Hall 'P 1'
_symmetry_space_group_name_H-M  'P 1'
_symmetry_Int_Tables_number     1

_symmetry_equiv_pos_as_xyz 'x,y,z'

loop_
_atom_site_label
_atom_site_type_symbol
_atom_site_fract_x
_atom_site_fract_y
_atom_site_fract_z
_atom_site_charge
C1       C      0.937700000000     0.417980000000     0.922720000000     0.348487   
C2       C      0.809860000000     0.412270000000     0.795080000000     0.350981   
C3       C      0.937410000000     0.287500000000     0.792610000000     0.349416   
C4       C      0.817060000000     0.285630000000     0.925530000000     0.349556   
C5       C      0.071610000000     0.670320000000     0.169940000000     0.350655   
C6       C      0.200010000000     0.544330000000     0.161040000000     0.352066   
C7       C      0.059000000000     0.544290000000     0.042030000000     0.349848   
C8       C      0.193780000000     0.667900000000     0.035190000000     0.350027   
C9       C      0.443200000000     0.917750000000     0.924800000000     0.350354   
C10      C      0.449470000000     0.793700000000     0.792970000000     0.352389   
C11      C      0.318160000000     0.788660000000     0.913200000000     0.350576   
C12      C      0.322030000000     0.922540000000     0.790320000000     0.349312   
C13      C      0.698270000000     0.162520000000     0.050240000000     0.349096   
C14      C      0.564860000000     0.038650000000     0.049180000000     0.349131   
C15      C      0.691270000000     0.037230000000     0.177900000000     0.350078   
C16      C      0.564090000000     0.167620000000     0.172860000000     0.349805   
C17      C      0.439770000000     0.293820000000     0.289470000000     0.349302   
C18      C      0.438260000000     0.424300000000     0.420100000000     0.348703   
C19      C      0.318490000000     0.422970000000     0.287500000000     0.352537   
C20      C      0.313150000000     0.296370000000     0.418560000000     0.351057   
C21      C      0.571340000000     0.667230000000     0.674420000000     0.351373   
C22      C      0.691830000000     0.536760000000     0.670920000000     0.351715   
C23      C      0.564430000000     0.542560000000     0.542990000000     0.348293   
C24      C      0.692800000000     0.670200000000     0.543890000000     0.349325   
C25      C      0.949900000000     0.790460000000     0.295120000000     0.349424   
C26      C      0.814480000000     0.913900000000     0.298400000000     0.34936    
C27      C      0.818800000000     0.790910000000     0.423100000000     0.351063   
C28      C      0.950630000000     0.917130000000     0.420340000000     0.349657   
C29      C      0.063680000000     0.168380000000     0.670390000000     0.350597   
C30      C      0.200580000000     0.046830000000     0.668980000000     0.349219   
C31      C      0.072120000000     0.042990000000     0.540010000000     0.350054   
C32      C      0.190750000000     0.175200000000     0.542060000000     0.352244   
C33      C      0.972670000000     0.952170000000     0.499620000000     0.0418157  
C34      C      0.021020000000     0.976010000000     0.427850000000     0.0464993  
C35      C      0.003450000000     0.984160000000     0.528920000000     0.0369366  
C36      C      0.052330000000     0.008760000000     0.456870000000     0.0352288  
C37      C      0.798840000000     0.712420000000     0.460720000000     0.0426043  
C38      C      0.743320000000     0.781750000000     0.475770000000     0.0481854  
C39      C      0.766660000000     0.682800000000     0.491180000000     0.0365012  
C40      C      0.710310000000     0.752370000000     0.506610000000     0.0292545  
C41      C      0.299400000000     0.220860000000     0.463980000000     0.0440831  
C42      C      0.233390000000     0.283260000000     0.464310000000     0.0481758  
C43      C      0.267900000000     0.190910000000     0.494730000000     0.0392543  
C44      C      0.200810000000     0.253260000000     0.494970000000     0.030949   
C45      C      0.550790000000     0.495660000000     0.468240000000     0.0414037  
C46      C      0.481310000000     0.503840000000     0.526720000000     0.0456165  
C47      C      0.518310000000     0.466370000000     0.437730000000     0.0361682  
C48      C      0.447710000000     0.475010000000     0.495970000000     0.0278935  
C49      C      0.766650000000     0.023100000000     0.229400000000     0.0434087  
C50      C      0.704070000000     0.958570000000     0.218160000000     0.0474832  
C51      C      0.796810000000     0.991640000000     0.259840000000     0.0364196  
C52      C      0.733770000000     0.926470000000     0.249290000000     0.0290598  
C53      C      0.546400000000     0.210460000000     0.249270000000     0.0414839  
C54      C      0.487950000000     0.219520000000     0.180920000000     0.0465998  
C55      C      0.514760000000     0.242420000000     0.277800000000     0.0363664  
C56      C      0.455690000000     0.252100000000     0.209110000000     0.0344089  
C57      C      0.245250000000     0.938560000000     0.741320000000     0.0418443  
C58      C      0.311500000000     0.000380000000     0.747830000000     0.0467179  
C59      C      0.215510000000     0.970260000000     0.710770000000     0.036271   
C60      C      0.282120000000     0.032780000000     0.716670000000     0.0346304  
C61      C      0.466700000000     0.752130000000     0.715850000000     0.0447088  
C62      C      0.525020000000     0.741140000000     0.784000000000     0.0490659  
C63      C      0.497660000000     0.720020000000     0.686880000000     0.0393796  
C64      C      0.556510000000     0.708200000000     0.755400000000     0.0310083  
C65      C      0.547450000000     0.001110000000     0.970030000000     0.0427557  
C66      C      0.490580000000     0.984810000000     0.038240000000     0.0471146  
C67      C      0.516580000000     0.970330000000     0.939550000000     0.0380147  
C68      C      0.459270000000     0.953130000000     0.008090000000     0.0352935  
C69      C      0.968570000000     0.755060000000     0.215210000000     0.0424509  
C70      C      0.024630000000     0.737310000000     0.283640000000     0.0469551  
C71      C      0.999810000000     0.724960000000     0.184360000000     0.0383954  
C72      C      0.056920000000     0.707110000000     0.252890000000     0.0353176  
C73      C      0.212900000000     0.746370000000     0.997130000000     0.0427211  
C74      C      0.266750000000     0.676490000000     0.979330000000     0.0470315  
C75      C      0.244400000000     0.775970000000     0.966010000000     0.037834   
C76      C      0.298500000000     0.705670000000     0.947180000000     0.0295286  
C77      C      0.243210000000     0.437430000000     0.236020000000     0.0448819  
C78      C      0.309630000000     0.499190000000     0.241880000000     0.0492731  
C79      C      0.214380000000     0.468190000000     0.203770000000     0.0389249  
C80      C      0.281280000000     0.530490000000     0.208860000000     0.0372035  
C81      C      0.047680000000     0.211430000000     0.747000000000     0.043381   
C82      C      0.983170000000     0.213010000000     0.683130000000     0.0487449  
C83      C      0.015350000000     0.241320000000     0.777060000000     0.0378182  
C84      C      0.949970000000     0.243220000000     0.713000000000     0.0355665  
C85      C      0.741430000000     0.270110000000     0.976210000000     0.0434992  
C86      C      0.807670000000     0.208310000000     0.969270000000     0.0464048  
C87      C      0.712460000000     0.238830000000     0.007820000000     0.0369114  
C88      C      0.779110000000     0.176400000000     0.001600000000     0.028328   
C89      C      0.768810000000     0.519420000000     0.719200000000     0.0443056  
C90      C      0.700620000000     0.459370000000     0.714510000000     0.0475063  
C91      C      0.797760000000     0.487600000000     0.750300000000     0.0381583  
C92      C      0.729510000000     0.426570000000     0.745650000000     0.0306237  
C93      C      0.012810000000     0.470070000000     0.935510000000     0.0412286  
C94      C      0.949300000000     0.461840000000     0.999790000000     0.0461928  
C95      C      0.042390000000     0.502090000000     0.965880000000     0.0362465  
C96      C      0.978510000000     0.494480000000     0.030830000000     0.0342039  
Cd1      Cd     0.876360000000     0.351120000000     0.859660000000     0.521965   
Cd2      Cd     0.130060000000     0.606490000000     0.101230000000     0.524378   
Cd3      Cd     0.383030000000     0.856880000000     0.854790000000     0.522767   
Cd4      Cd     0.629550000000     0.101660000000     0.112880000000     0.520015   
Cd5      Cd     0.378000000000     0.358790000000     0.354400000000     0.522703   
Cd6      Cd     0.631150000000     0.603300000000     0.607110000000     0.522385   
Cd7      Cd     0.884570000000     0.852720000000     0.359200000000     0.520012   
Cd8      Cd     0.131610000000     0.108010000000     0.606790000000     0.524752   
H1       H      0.994530000000     0.985440000000     0.568790000000     0.0578159  
H2       H      0.941700000000     0.930780000000     0.518090000000     0.0556501  
H3       H      0.028390000000     0.973300000000     0.387840000000     0.0682319  
H4       H      0.124770000000     0.054890000000     0.346500000000     0.177236   
H5       H      0.778160000000     0.643850000000     0.495670000000     0.0575757  
H6       H      0.833210000000     0.695070000000     0.443440000000     0.0555986  
H7       H      0.733600000000     0.820910000000     0.470110000000     0.0622961  
H8       H      0.636100000000     0.845140000000     0.484350000000     0.16994    
H9       H      0.284100000000     0.154850000000     0.505720000000     0.0632421  
H10      H      0.337790000000     0.206460000000     0.452580000000     0.0566489  
H11      H      0.219080000000     0.319730000000     0.452540000000     0.0632137  
H12      H      0.116070000000     0.320610000000     0.442870000000     0.167282   
H13      H      0.535540000000     0.452320000000     0.403130000000     0.0574441  
H14      H      0.590970000000     0.503010000000     0.455660000000     0.054571   
H15      H      0.465940000000     0.518510000000     0.561780000000     0.0613026  
H16      H      0.364750000000     0.539310000000     0.553420000000     0.166296   
H17      H      0.833380000000     0.006950000000     0.274880000000     0.0582423  
H18      H      0.781080000000     0.060860000000     0.222780000000     0.0580107  
H19      H      0.667270000000     0.944980000000     0.202180000000     0.0589322  
H20      H      0.647490000000     0.850970000000     0.204610000000     0.168343   
H21      H      0.527520000000     0.249780000000     0.316040000000     0.0568186  
H22      H      0.581770000000     0.195070000000     0.266610000000     0.0544639  
H23      H      0.476820000000     0.210900000000     0.142570000000     0.0685642  
H24      H      0.366970000000     0.276060000000     0.102400000000     0.177437   
H25      H      0.177690000000     0.956040000000     0.697540000000     0.0567291  
H26      H      0.229170000000     0.901800000000     0.749870000000     0.0550854  
H27      H      0.349500000000     0.012840000000     0.762130000000     0.0681961  
H28      H      0.387070000000     0.128150000000     0.716020000000     0.178524   
H29      H      0.484700000000     0.713480000000     0.648560000000     0.0606683  
H30      H      0.431620000000     0.768350000000     0.698730000000     0.0564989  
H31      H      0.536360000000     0.749080000000     0.822450000000     0.0634377  
H32      H      0.587510000000     0.675800000000     0.864500000000     0.17102    
H33      H      0.528880000000     0.966480000000     0.900670000000     0.0596987  
H34      H      0.581880000000     0.019020000000     0.953450000000     0.0583195  
H35      H      0.479850000000     0.989990000000     0.077320000000     0.0687647  
H36      H      0.377020000000     0.913370000000     0.114640000000     0.178091   
H37      H      0.987580000000     0.721440000000     0.145430000000     0.0603542  
H38      H      0.934290000000     0.773280000000     0.198670000000     0.0577821  
H39      H      0.035080000000     0.741910000000     0.322850000000     0.0682615  
H40      H      0.153600000000     0.685680000000     0.353760000000     0.179211   
H41      H      0.233650000000     0.815230000000     0.962690000000     0.0597413  
H42      H      0.179510000000     0.763970000000     0.015830000000     0.0560526  
H43      H      0.276120000000     0.637120000000     0.984120000000     0.0632811  
H44      H      0.315590000000     0.600010000000     0.900800000000     0.165789   
H45      H      0.176710000000     0.453830000000     0.190330000000     0.0601205  
H46      H      0.226770000000     0.401020000000     0.245420000000     0.0579577  
H47      H      0.347420000000     0.511960000000     0.256430000000     0.0692016  
H48      H      0.390230000000     0.621180000000     0.199890000000     0.179495   
H49      H      0.030540000000     0.251180000000     0.813900000000     0.0580026  
H50      H      0.085770000000     0.199850000000     0.761970000000     0.057699   
H51      H      0.969860000000     0.202130000000     0.646000000000     0.070848   
H52      H      0.846070000000     0.247570000000     0.616430000000     0.178305   
H53      H      0.674840000000     0.253100000000     0.021490000000     0.0588213  
H54      H      0.725080000000     0.306720000000     0.967470000000     0.0601522  
H55      H      0.845380000000     0.195690000000     0.954420000000     0.0602771  
H56      H      0.893700000000     0.137650000000     0.019530000000     0.165095   
H57      H      0.835930000000     0.501190000000     0.763270000000     0.0585437  
H58      H      0.785930000000     0.555540000000     0.709770000000     0.058119   
H59      H      0.662170000000     0.447660000000     0.700680000000     0.0605243  
H60      H      0.650780000000     0.351480000000     0.693440000000     0.166366   
H61      H      0.079090000000     0.516490000000     0.950240000000     0.0564695  
H62      H      0.027810000000     0.461730000000     0.898230000000     0.0553296  
H63      H      0.912420000000     0.446350000000     0.013740000000     0.0673052  
H64      H      0.875480000000     0.495940000000     0.128140000000     0.177303   
N1       N      0.981440000000     0.948190000000     0.449190000000    -0.16108    
N2       N      0.043400000000     0.012470000000     0.508240000000    -0.153589   
N3       N      0.787150000000     0.761780000000     0.453100000000    -0.160869   
N4       N      0.722400000000     0.702120000000     0.514280000000    -0.152797   
N5       N      0.282180000000     0.266980000000     0.448930000000    -0.160383   
N6       N      0.218910000000     0.206730000000     0.510870000000    -0.151522   
N7       N      0.532390000000     0.514010000000     0.512800000000    -0.161332   
N8       N      0.467120000000     0.455150000000     0.451400000000    -0.15303    
N9       N      0.720600000000     0.006420000000     0.208330000000    -0.160928   
N10      N      0.781360000000     0.943170000000     0.269460000000    -0.152912   
N11      N      0.532910000000     0.199010000000     0.200970000000    -0.161281   
N12      N      0.469260000000     0.263190000000     0.258460000000    -0.153916   
N13      N      0.293020000000     0.953720000000     0.759970000000    -0.16115    
N14      N      0.233090000000     0.017480000000     0.698520000000    -0.153626   
N15      N      0.480400000000     0.762640000000     0.764290000000    -0.16029    
N16      N      0.542650000000     0.698010000000     0.705950000000    -0.151618   
N17      N      0.534330000000     0.008440000000     0.019210000000    -0.160545   
N18      N      0.472230000000     0.946590000000     0.957820000000    -0.153578   
N19      N      0.980860000000     0.761000000000     0.264780000000    -0.160764   
N20      N      0.043650000000     0.700440000000     0.202680000000    -0.153187   
N21      N      0.224380000000     0.696850000000     0.004060000000    -0.160646   
N22      N      0.287660000000     0.756400000000     0.941520000000    -0.152404   
N23      N      0.290470000000     0.453150000000     0.255380000000    -0.159902   
N24      N      0.232350000000     0.515040000000     0.190720000000    -0.15285    
N25      N      0.031620000000     0.197430000000     0.700100000000    -0.159893   
N26      N      0.966640000000     0.257600000000     0.760630000000    -0.153259   
N27      N      0.788790000000     0.254740000000     0.956790000000    -0.160415   
N28      N      0.730350000000     0.191770000000     0.020240000000    -0.152979   
N29      N      0.720320000000     0.505320000000     0.701430000000    -0.160517   
N30      N      0.778680000000     0.441280000000     0.763950000000    -0.152093   
N31      N      0.966550000000     0.449760000000     0.952590000000    -0.161231   
N32      N      0.026230000000     0.514020000000     0.013730000000    -0.1541     
O1       O      0.855220000000     0.426670000000     0.809790000000    -0.237244   
O2       O      0.861460000000     0.272870000000     0.907210000000    -0.237448   
O3       O      0.952700000000     0.405950000000     0.878900000000    -0.23584    
O4       O      0.954250000000     0.299930000000     0.835790000000    -0.234748   
O5       O      0.892350000000     0.304770000000     0.781410000000    -0.221918   
O6       O      0.894340000000     0.398860000000     0.937210000000    -0.239587   
O7       O      0.795780000000     0.369790000000     0.811210000000    -0.216078   
O8       O      0.800400000000     0.328770000000     0.913260000000    -0.227759   
O9       O      0.209020000000     0.590140000000     0.152590000000    -0.216802   
O10      O      0.203630000000     0.621890000000     0.042600000000    -0.231252   
O11      O      0.109850000000     0.643020000000     0.183600000000    -0.220979   
O12      O      0.051280000000     0.553210000000     0.088050000000    -0.222009   
O13      O      0.100350000000     0.564200000000     0.023710000000    -0.240735   
O14      O      0.059980000000     0.667450000000     0.123630000000    -0.230942   
O15      O      0.157650000000     0.527400000000     0.141690000000    -0.233712   
O16      O      0.153990000000     0.685470000000     0.058380000000    -0.236204   
O17      O      0.460960000000     0.803980000000     0.838150000000    -0.228907   
O18      O      0.305970000000     0.879080000000     0.802170000000    -0.235902   
O19      O      0.458990000000     0.909160000000     0.880390000000    -0.233424   
O20      O      0.361860000000     0.776040000000     0.893840000000    -0.222584   
O21      O      0.304820000000     0.833960000000     0.905870000000    -0.230097   
O22      O      0.398840000000     0.898720000000     0.935820000000    -0.223766   
O23      O      0.407280000000     0.813390000000     0.776170000000    -0.237707   
O24      O      0.366510000000     0.935410000000     0.808320000000    -0.23782    
O25      O      0.605970000000     0.060610000000     0.032820000000    -0.234878   
O26      O      0.605990000000     0.147920000000     0.190250000000    -0.239982   
O27      O      0.707300000000     0.116720000000     0.058890000000    -0.220149   
O28      O      0.705200000000     0.081900000000     0.168410000000    -0.231394   
O29      O      0.648610000000     0.022720000000     0.157390000000    -0.237512   
O30      O      0.656390000000     0.179680000000     0.070260000000    -0.238946   
O31      O      0.553860000000     0.046130000000     0.095020000000    -0.233183   
O32      O      0.552810000000     0.156630000000     0.127800000000    -0.235463   
O33      O      0.455920000000     0.410000000000     0.377830000000    -0.233983   
O34      O      0.298040000000     0.339140000000     0.403550000000    -0.229212   
O35      O      0.455240000000     0.305570000000     0.333290000000    -0.235358   
O36      O      0.362750000000     0.436170000000     0.305810000000    -0.234186   
O37      O      0.301780000000     0.380100000000     0.300610000000    -0.229602   
O38      O      0.395430000000     0.311810000000     0.276940000000    -0.225928   
O39      O      0.393200000000     0.407180000000     0.431580000000    -0.224614   
O40      O      0.358570000000     0.282430000000     0.403650000000    -0.237978   
O41      O      0.646530000000     0.524950000000     0.654060000000    -0.238267   
O42      O      0.706120000000     0.624890000000     0.551090000000    -0.235346   
O43      O      0.615030000000     0.647560000000     0.686710000000    -0.221177   
O44      O      0.548530000000     0.559800000000     0.584710000000    -0.233692   
O45      O      0.611680000000     0.553440000000     0.530910000000    -0.239686   
O46      O      0.555740000000     0.657140000000     0.630240000000    -0.228137   
O47      O      0.709120000000     0.579450000000     0.657890000000    -0.231002   
O48      O      0.650750000000     0.683490000000     0.565820000000    -0.224413   
O49      O      0.855160000000     0.931830000000     0.319910000000    -0.23765    
O50      O      0.913410000000     0.891180000000     0.438980000000    -0.239243   
O51      O      0.909310000000     0.813160000000     0.278690000000    -0.235535   
O52      O      0.859470000000     0.773520000000     0.401180000000    -0.23722    
O53      O      0.809090000000     0.836910000000     0.415500000000    -0.231724   
O54      O      0.960110000000     0.796700000000     0.341320000000    -0.235693   
O55      O      0.807570000000     0.867400000000     0.304580000000    -0.221078   
O56      O      0.957320000000     0.912920000000     0.373330000000    -0.235381   
O57      O      0.157370000000     0.030360000000     0.651030000000    -0.239337   
O58      O      0.148070000000     0.187890000000     0.563390000000    -0.220609   
O59      O      0.108960000000     0.153630000000     0.684820000000    -0.234376   
O60      O      0.060390000000     0.047770000000     0.586130000000    -0.234332   
O61      O      0.111980000000     0.067890000000     0.525860000000    -0.222987   
O62      O      0.049970000000     0.154830000000     0.626650000000    -0.229235   
O63      O      0.210830000000     0.091940000000     0.658310000000    -0.22032    
O64      O      0.206570000000     0.131150000000     0.552000000000    -0.224702   
O65      O      0.160920000000     0.029010000000     0.442860000000    -0.137371   
O66      O      0.096700000000     0.033670000000     0.361550000000    -0.263044   
O67      O      0.089920000000     0.105350000000     0.433020000000    -0.13556    
O68      O      0.659020000000     0.780810000000     0.596280000000    -0.125803   
O69      O      0.653510000000     0.844490000000     0.517720000000    -0.253504   
O70      O      0.598830000000     0.757190000000     0.515120000000    -0.139491   
O71      O      0.131670000000     0.289460000000     0.569780000000    -0.123775   
O72      O      0.125300000000     0.331180000000     0.477470000000    -0.251026   
O73      O      0.090340000000     0.236450000000     0.492020000000    -0.132963   
O74      O      0.368690000000     0.409680000000     0.532240000000    -0.125809   
O75      O      0.368910000000     0.504920000000     0.566980000000    -0.252109   
O76      O      0.339530000000     0.486350000000     0.471130000000    -0.138068   
O77      O      0.701780000000     0.858210000000     0.324220000000    -0.130951   
O78      O      0.643230000000     0.862870000000     0.239650000000    -0.254387   
O79      O      0.741500000000     0.821630000000     0.236830000000    -0.139419   
O80      O      0.402870000000     0.340210000000     0.178990000000    -0.139739   
O81      O      0.399210000000     0.260320000000     0.116660000000    -0.262782   
O82      O      0.344330000000     0.258090000000     0.204010000000    -0.138696   
O83      O      0.276750000000     0.137830000000     0.725950000000    -0.135918   
O84      O      0.373830000000     0.094570000000     0.725840000000    -0.263029   
O85      O      0.316890000000     0.097600000000     0.639910000000    -0.137898   
O86      O      0.667730000000     0.699750000000     0.760060000000    -0.122593   
O87      O      0.613590000000     0.697870000000     0.847570000000    -0.252137   
O88      O      0.607930000000     0.618670000000     0.784360000000    -0.138811   
O89      O      0.411670000000     0.860100000000     0.029860000000    -0.136866   
O90      O      0.407640000000     0.932250000000     0.100990000000    -0.262207   
O91      O      0.348620000000     0.941920000000     0.016540000000    -0.138121   
O92      O      0.168130000000     0.697970000000     0.249850000000    -0.12965    
O93      O      0.121090000000     0.702170000000     0.340930000000    -0.262761   
O94      O      0.109500000000     0.619080000000     0.283550000000    -0.135584   
O95      O      0.408410000000     0.691900000000     0.934280000000    -0.123824   
O96      O      0.344940000000     0.611030000000     0.922960000000    -0.251399   
O97      O      0.344310000000     0.684220000000     0.852740000000    -0.143243   
O98      O      0.281160000000     0.635840000000     0.215420000000    -0.129008   
O99      O      0.376100000000     0.588410000000     0.211210000000    -0.261442   
O100     O      0.314130000000     0.591830000000     0.128540000000    -0.135139   
O101     O      0.884280000000     0.322480000000     0.680970000000    -0.136533   
O102     O      0.881210000000     0.235860000000     0.628240000000    -0.261224   
O103     O      0.838750000000     0.239120000000     0.721440000000    -0.129828   
O104     O      0.777060000000     0.071120000000     0.993580000000    -0.124992   
O105     O      0.872820000000     0.116580000000     0.996110000000    -0.25372    
O106     O      0.812860000000     0.112840000000     0.080200000000    -0.141795   
O107     O      0.688200000000     0.361540000000     0.819340000000    -0.123978   
O108     O      0.641360000000     0.361480000000     0.728170000000    -0.25219    
O109     O      0.739190000000     0.321310000000     0.739060000000    -0.130529   
O110     O      0.945220000000     0.571690000000     0.095760000000    -0.139318   
O111     O      0.887970000000     0.486100000000     0.094260000000    -0.26375    
O112     O      0.985910000000     0.486040000000     0.136020000000    -0.137405   
S1       S      0.100620000000     0.044710000000     0.423690000000     0.28801    
S2       S      0.654880000000     0.783550000000     0.534190000000     0.289066   
S3       S      0.136510000000     0.277420000000     0.508870000000     0.289337   
S4       S      0.380670000000     0.468700000000     0.516400000000     0.288907   
S5       S      0.705300000000     0.866710000000     0.262610000000     0.28857    
S6       S      0.399820000000     0.278120000000     0.177320000000     0.288512   
S7       S      0.312240000000     0.091420000000     0.701740000000     0.289015   
S8       S      0.611870000000     0.680700000000     0.786730000000     0.289744   
S9       S      0.406070000000     0.921420000000     0.038720000000     0.288531   
S10      S      0.114540000000     0.681030000000     0.281680000000     0.289175   
S11      S      0.349510000000     0.673340000000     0.913900000000     0.288501   
S12      S      0.313010000000     0.587400000000     0.190670000000     0.28916    
S13      S      0.887850000000     0.260610000000     0.686060000000     0.29015    
S14      S      0.810330000000     0.118740000000     0.018210000000     0.287945   
S15      S      0.699730000000     0.367200000000     0.758300000000     0.288496   
S16      S      0.949580000000     0.509920000000     0.089950000000     0.288408   


