data_structure

_audit_creation_method RASPA-1.0
_audit_creation_date 2023-5-22
_audit_author_name 'Poobodin Mano'

_cell_length_a    26.7667
_cell_length_b    26.8341
_cell_length_c    24.7698
_cell_angle_alpha 90
_cell_angle_beta  90
_cell_angle_gamma 90
_cell_volume      17791.2

_symmetry_cell_setting          triclinic
_symmetry_space_group_name_Hall 'P 1'
_symmetry_space_group_name_H-M  'P 1'
_symmetry_Int_Tables_number     1

_symmetry_equiv_pos_as_xyz 'x,y,z'

loop_
_atom_site_label
_atom_site_type_symbol
_atom_site_fract_x
_atom_site_fract_y
_atom_site_fract_z
_atom_site_charge
C1       C      0.785280000000     0.409360000000     0.819610000000     0.348948   
C2       C      0.908330000000     0.413020000000     0.951060000000     0.350321   
C3       C      0.786540000000     0.280490000000     0.947510000000     0.349411   
C4       C      0.917390000000     0.287820000000     0.820660000000     0.35739    
C5       C      0.025720000000     0.537760000000     0.075780000000     0.357057   
C6       C      0.157880000000     0.659480000000     0.071110000000     0.356171   
C7       C      0.034450000000     0.665950000000     0.201430000000     0.356973   
C8       C      0.156080000000     0.530340000000     0.201070000000     0.357149   
C9       C      0.281820000000     0.780740000000     0.949450000000     0.349139   
C10      C      0.407880000000     0.911770000000     0.949590000000     0.348526   
C11      C      0.411680000000     0.781050000000     0.824710000000     0.348747   
C12      C      0.281310000000     0.907630000000     0.822830000000     0.34867    
C13      C      0.666440000000     0.156070000000     0.069790000000     0.356105   
C14      C      0.527520000000     0.037450000000     0.070790000000     0.356362   
C15      C      0.656130000000     0.027850000000     0.195910000000     0.356705   
C16      C      0.538080000000     0.167150000000     0.194970000000     0.356283   
C17      C      0.282340000000     0.410110000000     0.321180000000     0.349669   
C18      C      0.414950000000     0.287760000000     0.318150000000     0.349273   
C19      C      0.414040000000     0.413960000000     0.445470000000     0.356975   
C20      C      0.289290000000     0.282170000000     0.449020000000     0.348618   
C21      C      0.664710000000     0.534300000000     0.698390000000     0.357384   
C22      C      0.534900000000     0.535450000000     0.570540000000     0.348982   
C23      C      0.534780000000     0.658190000000     0.704030000000     0.356606   
C24      C      0.662510000000     0.663800000000     0.574740000000     0.35021    
C25      C      0.787020000000     0.787100000000     0.456240000000     0.357109   
C26      C      0.911510000000     0.788030000000     0.323250000000     0.349741   
C27      C      0.780230000000     0.909860000000     0.320870000000     0.349351   
C28      C      0.910950000000     0.916800000000     0.448420000000     0.358515   
C29      C      0.039200000000     0.165160000000     0.698310000000     0.349081   
C30      C      0.159480000000     0.029520000000     0.699590000000     0.356732   
C31      C      0.034170000000     0.037660000000     0.571490000000     0.348895   
C32      C      0.169640000000     0.158060000000     0.572260000000     0.356246   
C33      C      0.989730000000     0.962060000000     0.558290000000     0.0389942  
C34      C      0.986640000000     0.024590000000     0.491640000000     0.0134336  
C35      C      0.959300000000     0.931730000000     0.526600000000     0.0450397  
C36      C      0.956600000000     0.994040000000     0.459010000000     0.143954   
C37      C      0.714990000000     0.678620000000     0.499150000000     0.0397991  
C38      C      0.704800000000     0.741200000000     0.564920000000     0.0133337  
C39      C      0.747070000000     0.709640000000     0.470250000000     0.0434921  
C40      C      0.737720000000     0.772460000000     0.536580000000     0.143884   
C41      C      0.241710000000     0.266160000000     0.528120000000     0.0377206  
C42      C      0.251410000000     0.203070000000     0.462840000000     0.0118435  
C43      C      0.212350000000     0.234260000000     0.559240000000     0.0421776  
C44      C      0.222590000000     0.170370000000     0.494290000000     0.142463   
C45      C      0.492590000000     0.458850000000     0.555760000000     0.0373451  
C46      C      0.488140000000     0.522280000000     0.490210000000     0.0120324  
C47      C      0.462720000000     0.428380000000     0.523560000000     0.0425656  
C48      C      0.458760000000     0.491590000000     0.457050000000     0.14189    
C49      C      0.764350000000     0.956340000000     0.241070000000     0.039595   
C50      C      0.700810000000     0.947010000000     0.306090000000     0.0127663  
C51      C      0.732410000000     0.985220000000     0.209460000000     0.0437002  
C52      C      0.668080000000     0.975330000000     0.274150000000     0.144132   
C53      C      0.430150000000     0.239530000000     0.239380000000     0.0385583  
C54      C      0.494150000000     0.250100000000     0.303640000000     0.012305   
C55      C      0.461850000000     0.209980000000     0.208200000000     0.0428966  
C56      C      0.526620000000     0.221060000000     0.272150000000     0.14359    
C57      C      0.266350000000     0.955660000000     0.743960000000     0.0383114  
C58      C      0.203030000000     0.947590000000     0.809430000000     0.012033   
C59      C      0.235010000000     0.985590000000     0.712840000000     0.0426037  
C60      C      0.170880000000     0.977040000000     0.778000000000     0.142946   
C61      C      0.428410000000     0.734270000000     0.745380000000     0.0378684  
C62      C      0.486760000000     0.734350000000     0.816570000000     0.0119194  
C63      C      0.459340000000     0.702650000000     0.715770000000     0.042531   
C64      C      0.517810000000     0.701850000000     0.787470000000     0.142707   
C65      C      0.455210000000     0.928970000000     0.028500000000     0.0384597  
C66      C      0.446300000000     0.990840000000     0.961720000000     0.0121468  
C67      C      0.484460000000     0.961320000000     0.059160000000     0.0429527  
C68      C      0.475050000000     0.024000000000     0.992670000000     0.143618   
C69      C      0.924610000000     0.733670000000     0.248890000000     0.038621   
C70      C      0.991930000000     0.754060000000     0.306010000000     0.0124636  
C71      C      0.956140000000     0.703680000000     0.218060000000     0.0432617  
C72      C      0.024190000000     0.724620000000     0.274710000000     0.144245   
C73      C      0.236120000000     0.764140000000     0.029640000000     0.0385708  
C74      C      0.233880000000     0.706580000000     0.957870000000     0.0120211  
C75      C      0.204350000000     0.733610000000     0.059560000000     0.0429927  
C76      C      0.201170000000     0.675990000000     0.987280000000     0.143496   
C77      C      0.265250000000     0.458530000000     0.243050000000     0.0392355  
C78      C      0.203070000000     0.448570000000     0.309460000000     0.0127243  
C79      C      0.232840000000     0.488090000000     0.212770000000     0.0432235  
C80      C      0.169830000000     0.477580000000     0.278850000000     0.143612   
C81      C      0.962180000000     0.207090000000     0.712400000000     0.0382822  
C82      C      0.028080000000     0.218100000000     0.774300000000     0.0131981  
C83      C      0.932120000000     0.238590000000     0.743160000000     0.0435709  
C84      C      0.998420000000     0.250610000000     0.805050000000     0.142984   
C85      C      0.738780000000     0.264110000000     0.026300000000     0.0382263  
C86      C      0.747780000000     0.201620000000     0.960220000000     0.012235   
C87      C      0.709440000000     0.232080000000     0.057240000000     0.0427946  
C88      C      0.718890000000     0.168780000000     0.991470000000     0.143656   
C89      C      0.707560000000     0.449660000000     0.804130000000     0.0381098  
C90      C      0.774450000000     0.462690000000     0.743970000000     0.012434   
C91      C      0.677860000000     0.481870000000     0.773770000000     0.0436845  
C92      C      0.745140000000     0.495760000000     0.713590000000     0.143144   
C93      C      0.956690000000     0.428460000000     0.029710000000     0.0397384  
C94      C      0.943450000000     0.493000000000     0.966840000000     0.0129568  
C95      C      0.985340000000     0.460560000000     0.061350000000     0.0435655  
C96      C      0.971640000000     0.525810000000     0.998750000000     0.144713   
Cd1      Cd     0.849020000000     0.346780000000     0.884950000000     0.520202   
Cd2      Cd     0.094510000000     0.597750000000     0.138240000000     0.524165   
Cd3      Cd     0.346220000000     0.845000000000     0.886690000000     0.518498   
Cd4      Cd     0.597050000000     0.097090000000     0.132820000000     0.524062   
Cd5      Cd     0.349510000000     0.348510000000     0.383800000000     0.519607   
Cd6      Cd     0.598750000000     0.597780000000     0.636230000000     0.521204   
Cd7      Cd     0.846680000000     0.850810000000     0.387210000000     0.521746   
Cd8      Cd     0.100830000000     0.098340000000     0.635510000000     0.521361   
H1       H      0.949290000000     0.895520000000     0.542780000000     0.0616298  
H2       H      0.002140000000     0.947730000000     0.596970000000     0.06186    
H3       H      0.997590000000     0.060800000000     0.476140000000     0.08059    
H4       H      0.762250000000     0.695320000000     0.432740000000     0.0575027  
H5       H      0.707410000000     0.641810000000     0.483000000000     0.0600953  
H6       H      0.689520000000     0.754420000000     0.602880000000     0.0805865  
H7       H      0.197400000000     0.248830000000     0.596750000000     0.0570075  
H8       H      0.248490000000     0.303480000000     0.543240000000     0.0578821  
H9       H      0.267220000000     0.189200000000     0.425400000000     0.0784293  
H10      H      0.453440000000     0.391740000000     0.539120000000     0.0569392  
H11      H      0.505310000000     0.444230000000     0.594190000000     0.0570865  
H12      H      0.498350000000     0.558920000000     0.475320000000     0.0782165  
H13      H      0.747150000000     0.999880000000     0.171890000000     0.0603054  
H14      H      0.801870000000     0.949580000000     0.226240000000     0.0606663  
H15      H      0.686770000000     0.931480000000     0.343580000000     0.0801239  
H16      H      0.446850000000     0.194590000000     0.171100000000     0.0591726  
H17      H      0.392540000000     0.246050000000     0.224700000000     0.0585121  
H18      H      0.508480000000     0.266340000000     0.340640000000     0.0789434  
H19      H      0.249890000000     0.000040000000     0.675240000000     0.0592839  
H20      H      0.303560000000     0.948000000000     0.728740000000     0.0588011  
H21      H      0.188860000000     0.932240000000     0.846950000000     0.0786318  
H22      H      0.446780000000     0.691750000000     0.675850000000     0.0570797  
H23      H      0.393380000000     0.745810000000     0.727280000000     0.058233   
H24      H      0.498230000000     0.745390000000     0.856850000000     0.0781924  
H25      H      0.499050000000     0.947390000000     0.097120000000     0.0595383  
H26      H      0.448130000000     0.891990000000     0.044420000000     0.0586441  
H27      H      0.430820000000     0.004050000000     0.923850000000     0.0783324  
H28      H      0.939760000000     0.684180000000     0.184020000000     0.0594809  
H29      H      0.885710000000     0.736360000000     0.236990000000     0.0581369  
H30      H      0.007540000000     0.774360000000     0.339940000000     0.0798102  
H31      H      0.194340000000     0.745980000000     0.099820000000     0.060481   
H32      H      0.248680000000     0.798680000000     0.047860000000     0.0588865  
H33      H      0.244030000000     0.695290000000     0.917260000000     0.0783884  
H34      H      0.246870000000     0.503190000000     0.175090000000     0.0584098  
H35      H      0.302400000000     0.451790000000     0.227160000000     0.0597008  
H36      H      0.189750000000     0.432620000000     0.347050000000     0.0785397  
H37      H      0.894250000000     0.244900000000     0.729160000000     0.0583785  
H38      H      0.946380000000     0.191020000000     0.676030000000     0.0588216  
H39      H      0.066270000000     0.211540000000     0.787150000000     0.0800137  
H40      H      0.694810000000     0.246400000000     0.095010000000     0.0593681  
H41      H      0.745870000000     0.301220000000     0.041850000000     0.0580232  
H42      H      0.763330000000     0.188050000000     0.922530000000     0.0787873  
H43      H      0.639730000000     0.487680000000     0.787190000000     0.0592711  
H44      H      0.691280000000     0.432610000000     0.839720000000     0.0576325  
H45      H      0.812890000000     0.456710000000     0.731660000000     0.0798275  
H46      H      0.001500000000     0.445510000000     0.098050000000     0.0597621  
H47      H      0.951570000000     0.390500000000     0.043660000000     0.0601725  
H48      H      0.926460000000     0.507340000000     0.930220000000     0.0798657  
N1       N      0.003370000000     0.008380000000     0.540770000000    -0.152548   
N2       N      0.942260000000     0.947530000000     0.477250000000    -0.169794   
N3       N      0.944420000000     0.011480000000     0.405840000000    -0.0270617  
N4       N      0.693690000000     0.694540000000     0.546210000000    -0.152737   
N5       N      0.757920000000     0.756790000000     0.488140000000    -0.170188   
N6       N      0.751520000000     0.818960000000     0.561070000000    -0.0268701  
N7       N      0.260780000000     0.250680000000     0.479780000000    -0.153767   
N8       N      0.201790000000     0.186790000000     0.542120000000    -0.170445   
N9       N      0.218360000000     0.119540000000     0.476760000000    -0.0269758  
N10      N      0.505110000000     0.505760000000     0.539120000000    -0.153939   
N11      N      0.445200000000     0.444620000000     0.474580000000    -0.17048    
N12      N      0.446380000000     0.509470000000     0.404090000000    -0.0270497  
N13      N      0.748670000000     0.937770000000     0.289550000000    -0.152927   
N14      N      0.684750000000     0.995800000000     0.226260000000    -0.169682   
N15      N      0.616950000000     0.979360000000     0.291200000000    -0.0267941  
N16      N      0.446190000000     0.259100000000     0.287260000000    -0.153552   
N17      N      0.509630000000     0.199700000000     0.224860000000    -0.169828   
N18      N      0.577820000000     0.217220000000     0.288980000000    -0.0266772  
N19      N      0.250450000000     0.937030000000     0.792330000000    -0.153675   
N20      N      0.187680000000     0.997160000000     0.729990000000    -0.170205   
N21      N      0.120110000000     0.982590000000     0.795730000000    -0.0270607  
N22      N      0.442280000000     0.750250000000     0.795560000000    -0.153834   
N23      N      0.504320000000     0.686940000000     0.736110000000    -0.170389   
N24      N      0.561490000000     0.682770000000     0.814010000000    -0.0268469  
N25      N      0.436560000000     0.943630000000     0.979670000000    -0.15366    
N26      N      0.495360000000     0.008400000000     0.041060000000    -0.169752   
N27      N      0.479670000000     0.074470000000     0.974060000000    -0.0267089  
N28      N      0.942480000000     0.758540000000     0.292980000000    -0.15349    
N29      N      0.005650000000     0.698310000000     0.231190000000    -0.169678   
N30      N      0.076510000000     0.725540000000     0.287460000000    -0.026792   
N31      N      0.250950000000     0.750490000000     0.978980000000    -0.153729   
N32      N      0.187280000000     0.689300000000     0.039020000000    -0.16979    
N33      N      0.180710000000     0.633080000000     0.960620000000    -0.0276394  
N34      N      0.250440000000     0.439120000000     0.291460000000    -0.153201   
N35      N      0.185490000000     0.498470000000     0.230770000000    -0.169958   
N36      N      0.119240000000     0.481910000000     0.297510000000    -0.0268689  
N37      N      0.009900000000     0.196540000000     0.728280000000    -0.153248   
N38      N      0.949590000000     0.259700000000     0.789940000000    -0.170276   
N39      N      0.021340000000     0.275650000000     0.849890000000    -0.0270205  
N40      N      0.757580000000     0.248960000000     0.977720000000    -0.153799   
N41      N      0.698560000000     0.184840000000     0.039680000000    -0.169768   
N42      N      0.714140000000     0.118180000000     0.973330000000    -0.0267896  
N43      N      0.755740000000     0.440130000000     0.789170000000    -0.153602   
N44      N      0.696140000000     0.504570000000     0.728240000000    -0.170075   
N45      N      0.768680000000     0.521820000000     0.669830000000    -0.0270372  
N46      N      0.936220000000     0.444610000000     0.982310000000    -0.153048   
N47      N      0.993880000000     0.508800000000     0.045570000000    -0.169766   
N48      N      0.973710000000     0.577240000000     0.982880000000    -0.0266841  
O1       O      0.888450000000     0.427060000000     0.907220000000    -0.234826   
O2       O      0.873730000000     0.298550000000     0.804600000000    -0.235115   
O3       O      0.769510000000     0.388610000000     0.862300000000    -0.238514   
O4       O      0.796760000000     0.324300000000     0.963050000000    -0.235439   
O5       O      0.805010000000     0.267540000000     0.902550000000    -0.236595   
O6       O      0.830330000000     0.400540000000     0.807190000000    -0.230594   
O7       O      0.900780000000     0.368020000000     0.964210000000    -0.230147   
O8       O      0.928570000000     0.303550000000     0.867270000000    -0.220095   
O9       O      0.145640000000     0.615610000000     0.057870000000    -0.213817   
O10      O      0.114720000000     0.546830000000     0.218150000000    -0.21473    
O11      O      0.041630000000     0.579560000000     0.059580000000    -0.211517   
O12      O      0.018070000000     0.645120000000     0.159060000000    -0.2347     
O13      O      0.078420000000     0.653920000000     0.215010000000    -0.212999   
O14      O      0.042590000000     0.523410000000     0.121000000000    -0.235165   
O15      O      0.141910000000     0.673970000000     0.116650000000    -0.233991   
O16      O      0.169370000000     0.546260000000     0.155090000000    -0.237514   
O17      O      0.397590000000     0.868080000000     0.965470000000    -0.233024   
O18      O      0.325200000000     0.896690000000     0.807740000000    -0.232568   
O19      O      0.297350000000     0.822160000000     0.967380000000    -0.233813   
O20      O      0.423230000000     0.796330000000     0.871460000000    -0.237264   
O21      O      0.369900000000     0.795700000000     0.806720000000    -0.234177   
O22      O      0.296290000000     0.769170000000     0.902400000000    -0.237503   
O23      O      0.389810000000     0.924280000000     0.904310000000    -0.237011   
O24      O      0.267650000000     0.889580000000     0.867750000000    -0.236961   
O25      O      0.545210000000     0.078080000000     0.053260000000    -0.21299    
O26      O      0.579290000000     0.149970000000     0.211700000000    -0.212847   
O27      O      0.648820000000     0.115200000000     0.052850000000    -0.212669   
O28      O      0.670180000000     0.043280000000     0.149990000000    -0.23497    
O29      O      0.615070000000     0.045400000000     0.212590000000    -0.212919   
O30      O      0.651100000000     0.169750000000     0.115870000000    -0.235334   
O31      O      0.542880000000     0.024270000000     0.117030000000    -0.235421   
O32      O      0.523790000000     0.150930000000     0.149460000000    -0.235601   
O33      O      0.370450000000     0.297240000000     0.304010000000    -0.232994   
O34      O      0.299200000000     0.326270000000     0.463850000000    -0.234259   
O35      O      0.326140000000     0.399980000000     0.305190000000    -0.230543   
O36      O      0.391840000000     0.428130000000     0.403070000000    -0.221148   
O37      O      0.404940000000     0.369600000000     0.460040000000    -0.235596   
O38      O      0.269790000000     0.391670000000     0.366280000000    -0.236025   
O39      O      0.428820000000     0.306410000000     0.362660000000    -0.235585   
O40      O      0.307340000000     0.268970000000     0.403950000000    -0.237125   
O41      O      0.552140000000     0.520810000000     0.615470000000    -0.238918   
O42      O      0.642530000000     0.677150000000     0.618800000000    -0.232522   
O43      O      0.676680000000     0.551580000000     0.652680000000    -0.220561   
O44      O      0.520420000000     0.641550000000     0.658700000000    -0.240217   
O45      O      0.579270000000     0.647600000000     0.716890000000    -0.214939   
O46      O      0.621200000000     0.545470000000     0.714540000000    -0.230952   
O47      O      0.547190000000     0.579100000000     0.556270000000    -0.233385   
O48      O      0.652340000000     0.620050000000     0.558980000000    -0.22999    
O49      O      0.926990000000     0.811500000000     0.364330000000    -0.234418   
O50      O      0.889150000000     0.930580000000     0.405620000000    -0.219068   
O51      O      0.807960000000     0.771170000000     0.413720000000    -0.239783   
O52      O      0.766870000000     0.892280000000     0.366080000000    -0.233183   
O53      O      0.824570000000     0.900060000000     0.306440000000    -0.230731   
O54      O      0.793380000000     0.832940000000     0.466110000000    -0.215643   
O55      O      0.865690000000     0.793630000000     0.311810000000    -0.234025   
O56      O      0.901500000000     0.872670000000     0.463540000000    -0.230874   
O57      O      0.118500000000     0.047420000000     0.716060000000    -0.21626    
O58      O      0.152530000000     0.116890000000     0.555620000000    -0.216347   
O59      O      0.083370000000     0.154120000000     0.712270000000    -0.22925    
O60      O      0.051090000000     0.023170000000     0.616620000000    -0.232857   
O61      O      0.047980000000     0.080590000000     0.556220000000    -0.228068   
O62      O      0.023740000000     0.145300000000     0.655010000000    -0.237194   
O63      O      0.173690000000     0.044600000000     0.653600000000    -0.236224   
O64      O      0.153840000000     0.171980000000     0.618070000000    -0.239771   
O65      O      0.961640000000     0.987790000000     0.363940000000    -0.0609052  
O66      O      0.926310000000     0.056090000000     0.399500000000    -0.0709379  
O67      O      0.797970000000     0.826990000000     0.573930000000    -0.0607788  
O68      O      0.717120000000     0.847950000000     0.580840000000    -0.069856   
O69      O      0.235730000000     0.083990000000     0.507180000000    -0.0626387  
O70      O      0.207400000000     0.109780000000     0.426690000000    -0.07145    
O71      O      0.463720000000     0.486340000000     0.361890000000    -0.0640863  
O72      O      0.427810000000     0.553950000000     0.398290000000    -0.0739247  
O73      O      0.606720000000     0.990080000000     0.341220000000    -0.0680809  
O74      O      0.581580000000     0.962230000000     0.260290000000    -0.0625544  
O75      O      0.588270000000     0.207200000000     0.339120000000    -0.0692616  
O76      O      0.613050000000     0.233900000000     0.257610000000    -0.0623661  
O77      O      0.110840000000     0.994280000000     0.845710000000    -0.0709995  
O78      O      0.083960000000     0.965690000000     0.765750000000    -0.0611782  
O79      O      0.565280000000     0.635160000000     0.823110000000    -0.0636211  
O80      O      0.591440000000     0.713180000000     0.839050000000    -0.0712227  
O81      O      0.462480000000     0.110700000000     0.003640000000    -0.0629611  
O82      O      0.490880000000     0.083220000000     0.923830000000    -0.0702106  
O83      O      0.090970000000     0.719590000000     0.337190000000    -0.0692775  
O84      O      0.108130000000     0.742870000000     0.252240000000    -0.0615116  
O85      O      0.210230000000     0.602650000000     0.935040000000    -0.0717405  
O86      O      0.132830000000     0.630620000000     0.951880000000    -0.053517   
O87      O      0.110490000000     0.493300000000     0.347690000000    -0.069815   
O88      O      0.083040000000     0.464130000000     0.268190000000    -0.0624078  
O89      O      0.025080000000     0.324000000000     0.849440000000    -0.0633211  
O90      O      0.047600000000     0.250310000000     0.884540000000    -0.071118   
O91      O      0.731360000000     0.082160000000     0.003190000000    -0.0608652  
O92      O      0.702830000000     0.109060000000     0.923210000000    -0.0689313  
O93      O      0.794670000000     0.497130000000     0.634410000000    -0.0726006  
O94      O      0.773380000000     0.570040000000     0.672190000000    -0.0618121  
O95      O      0.956080000000     0.611320000000     0.015050000000    -0.0612072  
O96      O      0.983170000000     0.588820000000     0.932900000000    -0.0654539  


