data_structure

_audit_creation_method RASPA-1.0
_audit_creation_date 2023-5-23
_audit_author_name 'Poobodin Mano'

_cell_length_a    31.1873
_cell_length_b    31.2274
_cell_length_c    32.931
_cell_angle_alpha 90.0007
_cell_angle_beta  90.0001
_cell_angle_gamma 119.919
_cell_volume      27797.3

_symmetry_cell_setting          triclinic
_symmetry_space_group_name_Hall 'P 1'
_symmetry_space_group_name_H-M  'P 1'
_symmetry_Int_Tables_number     1

_symmetry_equiv_pos_as_xyz 'x,y,z'

loop_
_atom_site_label
_atom_site_type_symbol
_atom_site_fract_x
_atom_site_fract_y
_atom_site_fract_z
_atom_site_charge
C1       C      0.468560000000     0.545220000000     0.181770000000     0.341633   
C2       C      0.434920000000     0.652910000000     0.292300000000     0.34098    
C3       C      0.341370000000     0.559140000000     0.197030000000     0.340959   
C4       C      0.448850000000     0.526060000000     0.308290000000     0.341645   
C5       C      0.191830000000     0.560700000000     0.109250000000     0.348687   
C6       C      0.051070000000     0.505880000000     0.525440000000     0.345569   
C7       C      0.063350000000     0.584030000000     0.149770000000     0.345096   
C8       C      0.167190000000     0.678330000000     0.037680000000     0.347508   
C9       C      0.433390000000     0.802510000000     0.379730000000     0.348594   
C10      C      0.488470000000     0.943680000000     0.463160000000     0.345631   
C11      C      0.410170000000     0.930690000000     0.338790000000     0.345032   
C12      C      0.315960000000     0.827250000000     0.451320000000     0.34757    
C13      C      0.935450000000     0.496260000000     0.275440000000     0.345661   
C14      C      0.794710000000     0.441470000000     0.359250000000     0.348633   
C15      C      0.819320000000     0.323820000000     0.287690000000     0.347627   
C16      C      0.923180000000     0.418100000000     0.399770000000     0.344988   
C17      C      0.518000000000     0.457000000000     0.431770000000     0.34159    
C18      C      0.551620000000     0.349300000000     0.542300000000     0.340895   
C19      C      0.645190000000     0.443050000000     0.447030000000     0.340938   
C20      C      0.537720000000     0.476160000000     0.058290000000     0.341619   
C21      C      0.553110000000     0.199680000000     0.129740000000     0.348665   
C22      C      0.498000000000     0.058510000000     0.213160000000     0.345671   
C23      C      0.576310000000     0.071490000000     0.088790000000     0.344984   
C24      C      0.670520000000     0.174910000000     0.201330000000     0.347635   
C25      C      0.580820000000     0.322350000000     0.097510000000     0.0343349  
C26      C      0.513690000000     0.263450000000     0.058590000000     0.0347983  
C27      C      0.513630000000     0.225440000000     0.081300000000     0.0357449  
C28      C      0.580660000000     0.284630000000     0.120120000000     0.035615   
C29      C      0.709710000000     0.414300000000     0.368840000000     0.0355773  
C30      C      0.769120000000     0.480800000000     0.407960000000     0.0356952  
C31      C      0.731120000000     0.480770000000     0.430750000000     0.0348317  
C32      C      0.672010000000     0.414170000000     0.391540000000     0.0344095  
C33      C      0.713450000000     0.203320000000     0.264020000000     0.0354226  
C34      C      0.753090000000     0.242350000000     0.202920000000     0.035466   
C35      C      0.791140000000     0.280660000000     0.225080000000     0.0353775  
C36      C      0.751730000000     0.241400000000     0.286190000000     0.0354095  
C37      C      0.425290000000     0.943270000000     0.268080000000     0.0354566  
C38      C      0.433680000000     0.008920000000     0.309130000000     0.0354354  
C39      C      0.456600000000     0.041850000000     0.276920000000     0.0355534  
C40      C      0.448220000000     0.976080000000     0.236050000000     0.0354737  
C41      C      0.538240000000     0.026110000000     0.486060000000     0.0354143  
C42      C      0.529880000000     0.960330000000     0.526920000000     0.03553    
C43      C      0.552790000000     0.993260000000     0.059130000000     0.0354527  
C44      C      0.561170000000     0.058900000000     0.018080000000     0.0355724  
C45      C      0.034660000000     0.465000000000     0.461470000000     0.0355604  
C46      C      0.968590000000     0.455660000000     0.502580000000     0.0353398  
C47      C      0.935780000000     0.432750000000     0.470540000000     0.0355283  
C48      C      0.001720000000     0.442110000000     0.429250000000     0.035415   
C49      C      0.050750000000     0.569380000000     0.220540000000     0.035465   
C50      C      0.984810000000     0.560020000000     0.179250000000     0.035462   
C51      C      0.951860000000     0.537130000000     0.211470000000     0.0355316  
C52      C      0.017930000000     0.546470000000     0.252580000000     0.0354243  
C53      C      0.195370000000     0.721480000000     0.475070000000     0.0353124  
C54      C      0.234760000000     0.760750000000     0.536180000000     0.0354726  
C55      C      0.273030000000     0.798840000000     0.514010000000     0.0353777  
C56      C      0.233400000000     0.759790000000     0.452910000000     0.0354823  
C57      C      0.458470000000     0.482940000000     0.135870000000     0.0344969  
C58      C      0.533520000000     0.558950000000     0.135490000000     0.0351215  
C59      C      0.551380000000     0.541120000000     0.104440000000     0.0351419  
C60      C      0.475680000000     0.465750000000     0.104680000000     0.0344847  
C61      C      0.435180000000     0.461100000000     0.354430000000     0.0351436  
C62      C      0.510880000000     0.536470000000     0.354680000000     0.0344688  
C63      C      0.528090000000     0.519270000000     0.385870000000     0.0345469  
C64      C      0.453050000000     0.443270000000     0.385490000000     0.0351298  
C65      C      0.472840000000     0.738760000000     0.308580000000     0.034739   
C66      C      0.405720000000     0.679850000000     0.347510000000     0.0343507  
C67      C      0.405870000000     0.717570000000     0.370120000000     0.0356094  
C68      C      0.472890000000     0.776760000000     0.331290000000     0.0357362  
C69      C      0.276830000000     0.587890000000     0.118840000000     0.0356053  
C70      C      0.217430000000     0.521380000000     0.157950000000     0.0357558  
C71      C      0.255430000000     0.521410000000     0.180740000000     0.0347904  
C72      C      0.314540000000     0.588030000000     0.141540000000     0.0343729  
C73      C      0.468560000000     0.545210000000     0.681770000000     0.341622   
C74      C      0.434920000000     0.652910000000     0.792300000000     0.340908   
C75      C      0.341360000000     0.559140000000     0.697030000000     0.340952   
C76      C      0.448850000000     0.526050000000     0.808290000000     0.34169    
C77      C      0.191830000000     0.560690000000     0.609250000000     0.34868    
C78      C      0.051070000000     0.505880000000     0.025440000000     0.345607   
C79      C      0.063350000000     0.584030000000     0.649770000000     0.34494    
C80      C      0.167200000000     0.678320000000     0.537680000000     0.347556   
C81      C      0.433390000000     0.802510000000     0.879730000000     0.348704   
C82      C      0.488470000000     0.943670000000     0.963150000000     0.345661   
C83      C      0.410170000000     0.930680000000     0.838790000000     0.344932   
C84      C      0.315960000000     0.827250000000     0.951320000000     0.34757    
C85      C      0.935450000000     0.496260000000     0.775440000000     0.345579   
C86      C      0.794710000000     0.441470000000     0.859250000000     0.348761   
C87      C      0.819320000000     0.323820000000     0.787690000000     0.347564   
C88      C      0.923180000000     0.418110000000     0.899770000000     0.345037   
C89      C      0.518000000000     0.457000000000     0.931770000000     0.341635   
C90      C      0.551630000000     0.349300000000     0.042300000000     0.340982   
C91      C      0.645190000000     0.443060000000     0.947030000000     0.340917   
C92      C      0.537720000000     0.476160000000     0.558290000000     0.341622   
C93      C      0.553120000000     0.199680000000     0.629740000000     0.348642   
C94      C      0.498000000000     0.058510000000     0.713160000000     0.345605   
C95      C      0.576310000000     0.071500000000     0.588790000000     0.345031   
C96      C      0.670520000000     0.174920000000     0.701330000000     0.347619   
C97      C      0.580820000000     0.322350000000     0.597510000000     0.0343168  
C98      C      0.513690000000     0.263450000000     0.558590000000     0.0348     
C99      C      0.513630000000     0.225440000000     0.581290000000     0.0356736  
C100     C      0.580660000000     0.284630000000     0.620120000000     0.0356304  
C101     C      0.709710000000     0.414300000000     0.868840000000     0.0355942  
C102     C      0.769120000000     0.480800000000     0.907960000000     0.0357128  
C103     C      0.731130000000     0.480780000000     0.930750000000     0.0347983  
C104     C      0.672010000000     0.414170000000     0.891540000000     0.0343645  
C105     C      0.713460000000     0.203320000000     0.764020000000     0.0353945  
C106     C      0.753090000000     0.242350000000     0.702920000000     0.0354647  
C107     C      0.791140000000     0.280660000000     0.725090000000     0.0353941  
C108     C      0.751730000000     0.241400000000     0.786190000000     0.0354432  
C109     C      0.425300000000     0.943270000000     0.768080000000     0.0354145  
C110     C      0.433690000000     0.008920000000     0.809130000000     0.0354572  
C111     C      0.456600000000     0.041850000000     0.776920000000     0.0355361  
C112     C      0.448220000000     0.976080000000     0.736050000000     0.0354848  
C113     C      0.538240000000     0.026100000000     0.986050000000     0.0353208  
C114     C      0.529880000000     0.960330000000     0.026920000000     0.035582   
C115     C      0.552800000000     0.993260000000     0.559130000000     0.035446   
C116     C      0.561180000000     0.058910000000     0.518080000000     0.0354678  
C117     C      0.034670000000     0.465010000000     0.961470000000     0.0355259  
C118     C      0.968600000000     0.455670000000     0.002580000000     0.035528   
C119     C      0.935780000000     0.432750000000     0.970540000000     0.0354092  
C120     C      0.001720000000     0.442110000000     0.929250000000     0.0354364  
C121     C      0.050750000000     0.569380000000     0.720540000000     0.0354208  
C122     C      0.984810000000     0.560030000000     0.679250000000     0.0354723  
C123     C      0.951860000000     0.537130000000     0.711470000000     0.035527   
C124     C      0.017930000000     0.546470000000     0.752580000000     0.0354396  
C125     C      0.195360000000     0.721480000000     0.975070000000     0.0352144  
C126     C      0.234760000000     0.760750000000     0.036180000000     0.0354616  
C127     C      0.273030000000     0.798840000000     0.014010000000     0.0354486  
C128     C      0.233400000000     0.759800000000     0.952910000000     0.0355364  
C129     C      0.458470000000     0.482940000000     0.635870000000     0.0344915  
C130     C      0.533520000000     0.558950000000     0.635490000000     0.0351338  
C131     C      0.551380000000     0.541120000000     0.604440000000     0.0351242  
C132     C      0.475680000000     0.465750000000     0.604680000000     0.0344824  
C133     C      0.435180000000     0.461100000000     0.854430000000     0.0351303  
C134     C      0.510880000000     0.536460000000     0.854680000000     0.0345141  
C135     C      0.528090000000     0.519270000000     0.885870000000     0.034496   
C136     C      0.453050000000     0.443270000000     0.885490000000     0.035158   
C137     C      0.472830000000     0.738750000000     0.808580000000     0.0347917  
C138     C      0.405720000000     0.679850000000     0.847510000000     0.0343519  
C139     C      0.405870000000     0.717560000000     0.870120000000     0.0355758  
C140     C      0.472880000000     0.776760000000     0.831290000000     0.035743   
C141     C      0.276830000000     0.587880000000     0.618840000000     0.0355713  
C142     C      0.217430000000     0.521370000000     0.657960000000     0.0356661  
C143     C      0.255430000000     0.521410000000     0.680740000000     0.0348481  
C144     C      0.314530000000     0.588020000000     0.641540000000     0.034415   
Cd1      Cd     0.423130000000     0.571120000000     0.244830000000     0.520516   
Cd2      Cd     0.118370000000     0.583630000000     0.079400000000     0.511828   
Cd3      Cd     0.410620000000     0.876080000000     0.409380000000     0.511876   
Cd4      Cd     0.868160000000     0.418520000000     0.329400000000     0.511862   
Cd5      Cd     0.563430000000     0.431100000000     0.494830000000     0.520501   
Cd6      Cd     0.575860000000     0.126100000000     0.159390000000     0.511859   
Cd7      Cd     0.423130000000     0.571110000000     0.744830000000     0.520529   
Cd8      Cd     0.118370000000     0.583630000000     0.579400000000     0.511837   
Cd9      Cd     0.410620000000     0.876070000000     0.909380000000     0.511863   
Cd10     Cd     0.868160000000     0.418520000000     0.829410000000     0.511854   
Cd11     Cd     0.563430000000     0.431100000000     0.994820000000     0.520445   
Cd12     Cd     0.575860000000     0.126110000000     0.659390000000     0.511876   
H1       H      0.608170000000     0.360070000000     0.105170000000     0.0514758  
H2       H      0.486790000000     0.253560000000     0.034390000000     0.0506551  
H3       H      0.486850000000     0.187560000000     0.073600000000     0.0502676  
H4       H      0.608050000000     0.294940000000     0.143980000000     0.0507889  
H5       H      0.699320000000     0.387100000000     0.344840000000     0.0507949  
H6       H      0.807080000000     0.507360000000     0.415740000000     0.0502768  
H7       H      0.741120000000     0.507460000000     0.455090000000     0.050626   
H8       H      0.634210000000     0.387040000000     0.383790000000     0.0514397  
H9       H      0.683100000000     0.173840000000     0.280710000000     0.0502288  
H10      H      0.754850000000     0.244630000000     0.170050000000     0.0503539  
H11      H      0.820750000000     0.310880000000     0.208390000000     0.050244   
H12      H      0.749280000000     0.239790000000     0.319050000000     0.0503654  
H13      H      0.414030000000     0.904710000000     0.263260000000     0.0505975  
H14      H      0.429490000000     0.023590000000     0.337760000000     0.0507167  
H15      H      0.469080000000     0.080650000000     0.281890000000     0.0503047  
H16      H      0.453530000000     0.961410000000     0.207830000000     0.0506217  
H17      H      0.532940000000     0.040770000000     0.457830000000     0.0506386  
H18      H      0.517400000000     0.921530000000     0.531880000000     0.0503172  
H19      H      0.556990000000     0.978590000000     0.087760000000     0.0507183  
H20      H      0.572440000000     0.097460000000     0.013260000000     0.0505824  
H21      H      0.073580000000     0.477870000000     0.456420000000     0.0503117  
H22      H      0.953820000000     0.460570000000     0.530900000000     0.0506608  
H23      H      0.897090000000     0.421100000000     0.475450000000     0.0505827  
H24      H      0.016500000000     0.438310000000     0.400530000000     0.0507211  
H25      H      0.089440000000     0.581040000000     0.225440000000     0.0506051  
H26      H      0.970030000000     0.563830000000     0.150530000000     0.0507235  
H27      H      0.912940000000     0.524260000000     0.206420000000     0.0503221  
H28      H      0.032710000000     0.541560000000     0.280900000000     0.0506366  
H29      H      0.165760000000     0.691250000000     0.458390000000     0.0502622  
H30      H      0.237210000000     0.762360000000     0.569040000000     0.0503494  
H31      H      0.303370000000     0.828320000000     0.530700000000     0.0502339  
H32      H      0.231640000000     0.757510000000     0.420040000000     0.0503437  
H33      H      0.421450000000     0.458270000000     0.147130000000     0.0516737  
H34      H      0.557330000000     0.596010000000     0.146930000000     0.0502728  
H35      H      0.588320000000     0.565080000000     0.092740000000     0.05027    
H36      H      0.451160000000     0.428610000000     0.093670000000     0.0516641  
H37      H      0.398250000000     0.437140000000     0.342740000000     0.0502534  
H38      H      0.535410000000     0.573610000000     0.343670000000     0.0516566  
H39      H      0.565110000000     0.543940000000     0.397130000000     0.0516572  
H40      H      0.429240000000     0.406210000000     0.396920000000     0.0502646  
H41      H      0.499730000000     0.748650000000     0.284390000000     0.0506606  
H42      H      0.378380000000     0.642130000000     0.355180000000     0.0514662  
H43      H      0.378480000000     0.707260000000     0.393980000000     0.0507875  
H44      H      0.499660000000     0.814650000000     0.323600000000     0.0502678  
H45      H      0.287220000000     0.615090000000     0.094840000000     0.0507965  
H46      H      0.179470000000     0.494810000000     0.165730000000     0.0502622  
H47      H      0.245450000000     0.494720000000     0.205080000000     0.0506472  
H48      H      0.352340000000     0.615170000000     0.133790000000     0.0514569  
H49      H      0.608160000000     0.360070000000     0.605170000000     0.0514795  
H50      H      0.486800000000     0.253560000000     0.534390000000     0.0506407  
H51      H      0.486850000000     0.187560000000     0.573610000000     0.0502844  
H52      H      0.608050000000     0.294940000000     0.643980000000     0.0507815  
H53      H      0.699320000000     0.387110000000     0.844840000000     0.0507939  
H54      H      0.807080000000     0.507360000000     0.915740000000     0.0502639  
H55      H      0.741110000000     0.507470000000     0.955090000000     0.0506346  
H56      H      0.634210000000     0.387040000000     0.883790000000     0.0514455  
H57      H      0.683100000000     0.173850000000     0.780710000000     0.0502338  
H58      H      0.754850000000     0.244630000000     0.670050000000     0.0503478  
H59      H      0.820750000000     0.310880000000     0.708390000000     0.0502292  
H60      H      0.749280000000     0.239800000000     0.819050000000     0.0503545  
H61      H      0.414030000000     0.904710000000     0.763260000000     0.0506046  
H62      H      0.429490000000     0.023590000000     0.837760000000     0.05071    
H63      H      0.469080000000     0.080650000000     0.781890000000     0.0503037  
H64      H      0.453530000000     0.961410000000     0.707830000000     0.0506135  
H65      H      0.532930000000     0.040760000000     0.957830000000     0.0506494  
H66      H      0.517400000000     0.921530000000     0.031880000000     0.0503248  
H67      H      0.557000000000     0.978590000000     0.587760000000     0.0507163  
H68      H      0.572440000000     0.097470000000     0.513260000000     0.0505862  
H69      H      0.073580000000     0.477880000000     0.956420000000     0.0503066  
H70      H      0.953820000000     0.460570000000     0.030900000000     0.0506233  
H71      H      0.897090000000     0.421100000000     0.975450000000     0.0505953  
H72      H      0.016500000000     0.438310000000     0.900520000000     0.050715   
H73      H      0.089440000000     0.581040000000     0.725440000000     0.0506131  
H74      H      0.970030000000     0.563830000000     0.650530000000     0.0507103  
H75      H      0.912940000000     0.524260000000     0.706420000000     0.0503213  
H76      H      0.032710000000     0.541560000000     0.780900000000     0.0506323  
H77      H      0.165760000000     0.691260000000     0.958390000000     0.0502611  
H78      H      0.237200000000     0.762360000000     0.069040000000     0.0503631  
H79      H      0.303370000000     0.828320000000     0.030700000000     0.0502353  
H80      H      0.231640000000     0.757500000000     0.920040000000     0.0503204  
H81      H      0.421450000000     0.458270000000     0.647130000000     0.0516663  
H82      H      0.557330000000     0.596010000000     0.646920000000     0.0502633  
H83      H      0.588320000000     0.565070000000     0.592740000000     0.0502702  
H84      H      0.451160000000     0.428610000000     0.593670000000     0.0516575  
H85      H      0.398250000000     0.437140000000     0.842740000000     0.0502517  
H86      H      0.535410000000     0.573610000000     0.843670000000     0.0516436  
H87      H      0.565110000000     0.543950000000     0.897130000000     0.0516594  
H88      H      0.429240000000     0.406200000000     0.896920000000     0.0502539  
H89      H      0.499730000000     0.748650000000     0.784390000000     0.0506374  
H90      H      0.378380000000     0.642130000000     0.855180000000     0.0514568  
H91      H      0.378470000000     0.707260000000     0.893980000000     0.0507963  
H92      H      0.499650000000     0.814650000000     0.823600000000     0.0502671  
H93      H      0.287220000000     0.615080000000     0.594840000000     0.0507964  
H94      H      0.179470000000     0.494810000000     0.665730000000     0.0502874  
H95      H      0.245440000000     0.494710000000     0.705080000000     0.0506231  
H96      H      0.352330000000     0.615160000000     0.633790000000     0.0514362  
N1       N      0.548300000000     0.311730000000     0.066050000000    -0.159943   
N2       N      0.548200000000     0.236220000000     0.111130000000    -0.16147    
N3       N      0.758210000000     0.446460000000     0.377940000000    -0.161436   
N4       N      0.682740000000     0.446420000000     0.423180000000    -0.160022   
N5       N      0.712790000000     0.205540000000     0.222490000000    -0.161044   
N6       N      0.788710000000     0.281530000000     0.266590000000    -0.161027   
N7       N      0.421090000000     0.960350000000     0.305300000000    -0.160663   
N8       N      0.466560000000     0.025680000000     0.241410000000    -0.160928   
N9       N      0.519910000000     0.976500000000     0.491410000000    -0.160914   
N10      N      0.565380000000     0.041830000000     0.055300000000    -0.160676   
N11      N      0.018330000000     0.474470000000     0.497120000000    -0.160865   
N12      N      0.952960000000     0.429040000000     0.433210000000    -0.160652   
N13      N      0.033570000000     0.573100000000     0.183210000000    -0.160659   
N14      N      0.968200000000     0.527670000000     0.247120000000    -0.160879   
N15      N      0.197790000000     0.720620000000     0.516590000000    -0.161033   
N16      N      0.273690000000     0.796610000000     0.472480000000    -0.161022   
N17      N      0.487140000000     0.529520000000     0.151180000000    -0.16035    
N18      N      0.522090000000     0.494620000000     0.089010000000    -0.160371   
N19      N      0.464470000000     0.507600000000     0.339010000000    -0.160407   
N20      N      0.499430000000     0.472700000000     0.401180000000    -0.160388   
N21      N      0.438240000000     0.690470000000     0.316050000000    -0.15995    
N22      N      0.438310000000     0.765980000000     0.361120000000    -0.161475   
N23      N      0.228330000000     0.555720000000     0.127940000000    -0.161482   
N24      N      0.303810000000     0.555770000000     0.173180000000    -0.159967   
N25      N      0.548300000000     0.311730000000     0.566050000000    -0.159914   
N26      N      0.548200000000     0.236230000000     0.611130000000    -0.1614     
N27      N      0.758210000000     0.446460000000     0.877940000000    -0.161459   
N28      N      0.682750000000     0.446430000000     0.923180000000    -0.15997    
N29      N      0.712790000000     0.205550000000     0.722490000000    -0.161043   
N30      N      0.788710000000     0.281530000000     0.766600000000    -0.161059   
N31      N      0.421090000000     0.960350000000     0.805300000000    -0.160619   
N32      N      0.466560000000     0.025680000000     0.741410000000    -0.16092    
N33      N      0.519920000000     0.976500000000     0.991410000000    -0.160884   
N34      N      0.565380000000     0.041830000000     0.555300000000    -0.160645   
N35      N      0.018330000000     0.474470000000     0.997120000000    -0.160944   
N36      N      0.952960000000     0.429040000000     0.933210000000    -0.16065    
N37      N      0.033560000000     0.573100000000     0.683210000000    -0.160611   
N38      N      0.968200000000     0.527670000000     0.747120000000    -0.160865   
N39      N      0.197790000000     0.720620000000     0.016590000000    -0.160996   
N40      N      0.273690000000     0.796610000000     0.972480000000    -0.16107    
N41      N      0.487140000000     0.529520000000     0.651180000000    -0.160377   
N42      N      0.522090000000     0.494620000000     0.589010000000    -0.160373   
N43      N      0.464470000000     0.507600000000     0.839010000000    -0.16045    
N44      N      0.499430000000     0.472690000000     0.901180000000    -0.160414   
N45      N      0.438240000000     0.690470000000     0.816050000000    -0.159963   
N46      N      0.438310000000     0.765980000000     0.861120000000    -0.161492   
N47      N      0.228330000000     0.555710000000     0.627940000000    -0.161456   
N48      N      0.303810000000     0.555770000000     0.673180000000    -0.160027   
O1       O      0.464760000000     0.660210000000     0.263130000000    -0.236475   
O2       O      0.404740000000     0.503560000000     0.294490000000    -0.235776   
O3       O      0.490870000000     0.589410000000     0.195270000000    -0.235824   
O4       O      0.385740000000     0.593100000000     0.191290000000    -0.247381   
O5       O      0.333970000000     0.529540000000     0.226380000000    -0.236518   
O6       O      0.427270000000     0.515720000000     0.198000000000    -0.248927   
O7       O      0.400820000000     0.608630000000     0.298000000000    -0.247396   
O8       O      0.478350000000     0.567390000000     0.292170000000    -0.248903   
O9       O      0.097540000000     0.525760000000     0.521100000000    -0.241617   
O10      O      0.137830000000     0.638430000000     0.019760000000    -0.244924   
O11      O      0.201850000000     0.595570000000     0.084610000000    -0.245706   
O12      O      0.047780000000     0.583780000000     0.114150000000    -0.237815   
O13      O      0.105970000000     0.588650000000     0.152190000000    -0.242842   
O14      O      0.146500000000     0.533550000000     0.118000000000    -0.241444   
O15      O      0.036700000000     0.520500000000     0.555620000000    -0.24133    
O16      O      0.170750000000     0.675060000000     0.575740000000    -0.243628   
O17      O      0.469050000000     0.897300000000     0.467400000000    -0.241595   
O18      O      0.319050000000     0.823910000000     0.413210000000    -0.243544   
O19      O      0.460820000000     0.847790000000     0.371100000000    -0.241253   
O20      O      0.409950000000     0.946170000000     0.374350000000    -0.237789   
O21      O      0.406040000000     0.888320000000     0.336520000000    -0.242884   
O22      O      0.398310000000     0.792600000000     0.404170000000    -0.245683   
O23      O      0.473360000000     0.957830000000     0.433160000000    -0.241468   
O24      O      0.356000000000     0.856400000000     0.469190000000    -0.245055   
O25      O      0.784690000000     0.406600000000     0.334610000000    -0.245702   
O26      O      0.880560000000     0.413490000000     0.402190000000    -0.242773   
O27      O      0.888990000000     0.476380000000     0.271100000000    -0.241707   
O28      O      0.848680000000     0.363700000000     0.269770000000    -0.245053   
O29      O      0.815760000000     0.327080000000     0.325750000000    -0.243625   
O30      O      0.949820000000     0.481640000000     0.305620000000    -0.241364   
O31      O      0.840040000000     0.468610000000     0.368010000000    -0.241413   
O32      O      0.938740000000     0.418360000000     0.364140000000    -0.237769   
O33      O      0.521790000000     0.342010000000     0.513130000000    -0.236486   
O34      O      0.581830000000     0.498660000000     0.044500000000    -0.235765   
O35      O      0.495690000000     0.412810000000     0.445270000000    -0.23581    
O36      O      0.600810000000     0.409110000000     0.441290000000    -0.247364   
O37      O      0.652590000000     0.472660000000     0.476380000000    -0.236469   
O38      O      0.559300000000     0.486500000000     0.448000000000    -0.248883   
O39      O      0.585740000000     0.393580000000     0.048000000000    -0.24733    
O40      O      0.508210000000     0.434830000000     0.042170000000    -0.248853   
O41      O      0.517430000000     0.104880000000     0.217400000000    -0.24168    
O42      O      0.667440000000     0.178250000000     0.163220000000    -0.243565   
O43      O      0.525670000000     0.154410000000     0.121110000000    -0.241309   
O44      O      0.580430000000     0.113860000000     0.086520000000    -0.242827   
O45      O      0.576530000000     0.056010000000     0.124350000000    -0.237771   
O46      O      0.588190000000     0.209590000000     0.154180000000    -0.245705   
O47      O      0.513110000000     0.044350000000     0.183160000000    -0.24144    
O48      O      0.630480000000     0.145770000000     0.219200000000    -0.245086   
O49      O      0.464750000000     0.660200000000     0.763130000000    -0.23649    
O50      O      0.404740000000     0.503550000000     0.794490000000    -0.235801   
O51      O      0.490870000000     0.589400000000     0.695270000000    -0.235816   
O52      O      0.385740000000     0.593090000000     0.691290000000    -0.24734    
O53      O      0.333970000000     0.529540000000     0.726380000000    -0.236498   
O54      O      0.427260000000     0.515720000000     0.698000000000    -0.248913   
O55      O      0.400810000000     0.608620000000     0.798000000000    -0.247308   
O56      O      0.478350000000     0.567380000000     0.792170000000    -0.248925   
O57      O      0.097540000000     0.525760000000     0.021090000000    -0.241594   
O58      O      0.137830000000     0.638430000000     0.519760000000    -0.244986   
O59      O      0.201850000000     0.595560000000     0.584610000000    -0.24571    
O60      O      0.047780000000     0.583770000000     0.614140000000    -0.23773    
O61      O      0.105970000000     0.588650000000     0.652190000000    -0.242805   
O62      O      0.146500000000     0.533540000000     0.618000000000    -0.241434   
O63      O      0.036700000000     0.520500000000     0.055620000000    -0.241346   
O64      O      0.170750000000     0.675070000000     0.075740000000    -0.243589   
O65      O      0.469050000000     0.897300000000     0.967400000000    -0.241681   
O66      O      0.319050000000     0.823910000000     0.913210000000    -0.24355    
O67      O      0.460820000000     0.847780000000     0.871100000000    -0.241345   
O68      O      0.409950000000     0.946170000000     0.874350000000    -0.23773    
O69      O      0.406040000000     0.888310000000     0.836520000000    -0.242866   
O70      O      0.398310000000     0.792600000000     0.904170000000    -0.245737   
O71      O      0.473360000000     0.957830000000     0.933160000000    -0.2415     
O72      O      0.356000000000     0.856400000000     0.969190000000    -0.24507    
O73      O      0.784680000000     0.406610000000     0.834610000000    -0.24578    
O74      O      0.880560000000     0.413490000000     0.902190000000    -0.242839   
O75      O      0.888990000000     0.476380000000     0.771100000000    -0.241676   
O76      O      0.848680000000     0.363710000000     0.769770000000    -0.244987   
O77      O      0.815760000000     0.327090000000     0.825750000000    -0.24361    
O78      O      0.949830000000     0.481640000000     0.805620000000    -0.241298   
O79      O      0.840040000000     0.468610000000     0.868010000000    -0.241468   
O80      O      0.938740000000     0.418370000000     0.864140000000    -0.2378     
O81      O      0.521790000000     0.342010000000     0.013140000000    -0.236481   
O82      O      0.581830000000     0.498660000000     0.544500000000    -0.235808   
O83      O      0.495690000000     0.412810000000     0.945270000000    -0.235851   
O84      O      0.600810000000     0.409110000000     0.941290000000    -0.247372   
O85      O      0.652590000000     0.472660000000     0.976380000000    -0.236528   
O86      O      0.559300000000     0.486500000000     0.948000000000    -0.248922   
O87      O      0.585740000000     0.393580000000     0.548000000000    -0.247331   
O88      O      0.508210000000     0.434830000000     0.542170000000    -0.248898   
O89      O      0.517440000000     0.104880000000     0.717400000000    -0.241677   
O90      O      0.667440000000     0.178250000000     0.663220000000    -0.243571   
O91      O      0.525670000000     0.154410000000     0.621110000000    -0.241314   
O92      O      0.580430000000     0.113860000000     0.586530000000    -0.242929   
O93      O      0.576530000000     0.056010000000     0.624350000000    -0.237736   
O94      O      0.588190000000     0.209590000000     0.654180000000    -0.245775   
O95      O      0.513120000000     0.044350000000     0.683160000000    -0.241376   
O96      O      0.630480000000     0.145770000000     0.719200000000    -0.245059   


