data_structure

_audit_creation_method RASPA-1.0
_audit_creation_date 2023-5-22
_audit_author_name 'Poobodin Mano'

_cell_length_a    26.3726
_cell_length_b    26.0782
_cell_length_c    26.141
_cell_angle_alpha 90
_cell_angle_beta  90
_cell_angle_gamma 90
_cell_volume      17978.5

_symmetry_cell_setting          triclinic
_symmetry_space_group_name_Hall 'P 1'
_symmetry_space_group_name_H-M  'P 1'
_symmetry_Int_Tables_number     1

_symmetry_equiv_pos_as_xyz 'x,y,z'

loop_
_atom_site_label
_atom_site_type_symbol
_atom_site_fract_x
_atom_site_fract_y
_atom_site_fract_z
_atom_site_charge
C1       C      0.790930000000     0.299240000000     0.925570000000     0.34696    
C2       C      0.921040000000     0.422890000000     0.921560000000     0.34684    
C3       C      0.917520000000     0.292520000000     0.797330000000     0.346464   
C4       C      0.795040000000     0.423140000000     0.791020000000     0.346443   
C5       C      0.043020000000     0.544030000000     0.045610000000     0.346229   
C6       C      0.163450000000     0.547190000000     0.177260000000     0.346475   
C7       C      0.169560000000     0.674250000000     0.048890000000     0.346777   
C8       C      0.039270000000     0.677110000000     0.172250000000     0.346836   
C9       C      0.290800000000     0.793810000000     0.922540000000     0.346922   
C10      C      0.291500000000     0.919890000000     0.791030000000     0.346566   
C11      C      0.419580000000     0.918560000000     0.919010000000     0.346515   
C12      C      0.415050000000     0.790070000000     0.792040000000     0.346891   
C13      C      0.664700000000     0.176630000000     0.043750000000     0.347084   
C14      C      0.538070000000     0.045530000000     0.040760000000     0.347103   
C15      C      0.666090000000     0.047690000000     0.165960000000     0.346416   
C16      C      0.536440000000     0.176110000000     0.168210000000     0.346415   
C17      C      0.416450000000     0.299650000000     0.292010000000     0.346351   
C18      C      0.290790000000     0.295770000000     0.424990000000     0.346419   
C19      C      0.420400000000     0.421450000000     0.420830000000     0.347006   
C20      C      0.283980000000     0.423930000000     0.300600000000     0.346981   
C21      C      0.672170000000     0.545620000000     0.669200000000     0.347127   
C22      C      0.537580000000     0.667330000000     0.670120000000     0.347182   
C23      C      0.670780000000     0.675530000000     0.546340000000     0.346268   
C24      C      0.546670000000     0.541580000000     0.541360000000     0.346354   
C25      C      0.917730000000     0.802380000000     0.292710000000     0.346952   
C26      C      0.787040000000     0.925810000000     0.290370000000     0.34703    
C27      C      0.789520000000     0.799420000000     0.421690000000     0.346367   
C28      C      0.912230000000     0.931060000000     0.418990000000     0.346425   
C29      C      0.037610000000     0.167640000000     0.675140000000     0.346326   
C30      C      0.168870000000     0.174590000000     0.549100000000     0.346537   
C31      C      0.169670000000     0.042110000000     0.667890000000     0.346966   
C32      C      0.037500000000     0.048850000000     0.542910000000     0.346929   
C33      C      0.012790000000     0.969020000000     0.507230000000     0.0352802  
C34      C      0.967770000000     0.043830000000     0.485460000000     0.0250478  
C35      C      0.980980000000     0.940190000000     0.475910000000     0.0329109  
C36      C      0.935290000000     0.015170000000     0.453770000000     0.0611108  
C37      C      0.720270000000     0.742550000000     0.434190000000     0.0354609  
C38      C      0.771910000000     0.765220000000     0.504040000000     0.0249038  
C39      C      0.690910000000     0.711750000000     0.466150000000     0.0326391  
C40      C      0.742620000000     0.734310000000     0.536740000000     0.0611184  
C41      C      0.223850000000     0.235980000000     0.436390000000     0.0354339  
C42      C      0.268660000000     0.266390000000     0.508090000000     0.0250242  
C43      C      0.193570000000     0.206000000000     0.468230000000     0.0327519  
C44      C      0.238390000000     0.236350000000     0.540690000000     0.0610476  
C45      C      0.446020000000     0.502220000000     0.453790000000     0.0353194  
C46      C      0.491660000000     0.427950000000     0.476060000000     0.0251923  
C47      C      0.478270000000     0.531700000000     0.484080000000     0.0329386  
C48      C      0.524540000000     0.457220000000     0.506710000000     0.0610058  
C49      C      0.716390000000     0.980940000000     0.277930000000     0.0354629  
C50      C      0.769150000000     0.960360000000     0.208290000000     0.0249865  
C51      C      0.686560000000     0.011390000000     0.246050000000     0.0327746  
C52      C      0.739490000000     0.990990000000     0.175710000000     0.0610183  
C53      C      0.470090000000     0.187010000000     0.228770000000     0.035504   
C54      C      0.514210000000     0.259140000000     0.198020000000     0.0249079  
C55      C      0.440330000000     0.218730000000     0.259480000000     0.0326899  
C56      C      0.484510000000     0.291590000000     0.228760000000     0.0610866  
C57      C      0.222410000000     0.977130000000     0.779650000000     0.0354315  
C58      C      0.271800000000     0.952910000000     0.708670000000     0.025043   
C59      C      0.192280000000     0.007520000000     0.748070000000     0.0328896  
C60      C      0.241720000000     0.983410000000     0.676330000000     0.0610516  
C61      C      0.485700000000     0.778460000000     0.737060000000     0.0355574  
C62      C      0.432910000000     0.708250000000     0.756130000000     0.0250207  
C63      C      0.515870000000     0.747060000000     0.706560000000     0.0327295  
C64      C      0.463050000000     0.676070000000     0.725460000000     0.0611611  
C65      C      0.468210000000     0.031960000000     0.984960000000     0.0356806  
C66      C      0.521850000000     0.963010000000     0.006060000000     0.0249818  
C67      C      0.439000000000     0.999420000000     0.954570000000     0.0324576  
C68      C      0.492840000000     0.929790000000     0.975480000000     0.0610191  
C69      C      0.967490000000     0.690220000000     0.225580000000     0.0354364  
C70      C      0.022220000000     0.759200000000     0.207680000000     0.0250809  
C71      C      0.937540000000     0.722300000000     0.255690000000     0.0326679  
C72      C      0.992410000000     0.791990000000     0.237960000000     0.0608864  
C73      C      0.218140000000     0.741900000000     0.936720000000     0.0355241  
C74      C      0.275070000000     0.757380000000     0.004300000000     0.0251044  
C75      C      0.188220000000     0.712080000000     0.969090000000     0.032643   
C76      C      0.245330000000     0.727340000000     0.037370000000     0.0610395  
C77      C      0.232130000000     0.489680000000     0.188990000000     0.0354752  
C78      C      0.181760000000     0.513020000000     0.259580000000     0.0250538  
C79      C      0.261730000000     0.458790000000     0.220520000000     0.0328119  
C80      C      0.211440000000     0.482030000000     0.291920000000     0.0612418  
C81      C      0.986760000000     0.280030000000     0.740750000000     0.0353132  
C82      C      0.936290000000     0.209560000000     0.764670000000     0.0250026  
C83      C      0.016350000000     0.248070000000     0.710260000000     0.0329047  
C84      C      0.965930000000     0.176800000000     0.734110000000     0.0610018  
C85      C      0.688200000000     0.213510000000     0.964110000000     0.0352761  
C86      C      0.735510000000     0.232620000000     0.038030000000     0.025161   
C87      C      0.720290000000     0.244540000000     0.935170000000     0.0329689  
C88      C      0.768120000000     0.264100000000     0.009360000000     0.0610807  
C89      C      0.695260000000     0.511160000000     0.749990000000     0.0353553  
C90      C      0.742460000000     0.489140000000     0.676800000000     0.0252291  
C91      C      0.726520000000     0.480190000000     0.779860000000     0.0329536  
C92      C      0.774320000000     0.457780000000     0.706460000000     0.0609927  
C93      C      0.941940000000     0.503050000000     0.959200000000     0.0353025  
C94      C      0.993210000000     0.430960000000     0.975300000000     0.0249229  
C95      C      0.973070000000     0.532790000000     0.990460000000     0.0327339  
C96      C      0.024920000000     0.460460000000     0.006950000000     0.0611233  
Cd1      Cd     0.855540000000     0.359840000000     0.858980000000     0.51359    
Cd2      Cd     0.102840000000     0.610990000000     0.110690000000     0.513463   
Cd3      Cd     0.353560000000     0.855760000000     0.856000000000     0.513222   
Cd4      Cd     0.599660000000     0.111560000000     0.104580000000     0.513192   
Cd5      Cd     0.352460000000     0.359840000000     0.359570000000     0.513697   
Cd6      Cd     0.606470000000     0.608240000000     0.606580000000     0.513973   
Cd7      Cd     0.850690000000     0.863900000000     0.356000000000     0.513419   
Cd8      Cd     0.103260000000     0.108150000000     0.608710000000     0.51412    
H1       H      0.988350000000     0.899310000000     0.473920000000     0.0518545  
H2       H      0.042780000000     0.949130000000     0.527540000000     0.0503111  
H3       H      0.961950000000     0.084970000000     0.488710000000     0.0534878  
H4       H      0.659390000000     0.691600000000     0.448640000000     0.0516113  
H5       H      0.710020000000     0.744620000000     0.394060000000     0.0502807  
H6       H      0.803910000000     0.786180000000     0.519860000000     0.0535247  
H7       H      0.164540000000     0.182960000000     0.449900000000     0.0515707  
H8       H      0.216690000000     0.234620000000     0.395550000000     0.0502331  
H9       H      0.298250000000     0.290180000000     0.524690000000     0.0535844  
H10      H      0.470760000000     0.572570000000     0.485620000000     0.0516678  
H11      H      0.415630000000     0.521630000000     0.433630000000     0.0502604  
H12      H      0.497720000000     0.386810000000     0.473240000000     0.0536011  
H13      H      0.654390000000     0.030540000000     0.263460000000     0.0515681  
H14      H      0.705870000000     0.978150000000     0.317940000000     0.0502518  
H15      H      0.801810000000     0.940410000000     0.192520000000     0.0535046  
H16      H      0.411770000000     0.200230000000     0.282950000000     0.0516242  
H17      H      0.463060000000     0.146050000000     0.230010000000     0.050244   
H18      H      0.543300000000     0.275990000000     0.173810000000     0.0535838  
H19      H      0.161390000000     0.028130000000     0.766180000000     0.0516624  
H20      H      0.213350000000     0.975830000000     0.820100000000     0.0503665  
H21      H      0.303240000000     0.931510000000     0.692270000000     0.0535353  
H22      H      0.548180000000     0.764930000000     0.688090000000     0.0516214  
H23      H      0.496130000000     0.818550000000     0.740450000000     0.0504429  
H24      H      0.400040000000     0.692160000000     0.775430000000     0.0534554  
H25      H      0.406680000000     0.016310000000     0.935220000000     0.0516617  
H26      H      0.457100000000     0.071920000000     0.987550000000     0.050114   
H27      H      0.554640000000     0.947760000000     0.026170000000     0.0536064  
H28      H      0.904520000000     0.705220000000     0.273630000000     0.0514817  
H29      H      0.956220000000     0.650400000000     0.221830000000     0.0502113  
H30      H      0.055720000000     0.774620000000     0.188930000000     0.0534995  
H31      H      0.154320000000     0.695240000000     0.952670000000     0.051501   
H32      H      0.205930000000     0.746570000000     0.897370000000     0.0502546  
H33      H      0.309430000000     0.775060000000     0.019050000000     0.0535547  
H34      H      0.292850000000     0.438440000000     0.202520000000     0.0516853  
H35      H      0.241750000000     0.491440000000     0.148690000000     0.0505963  
H36      H      0.150050000000     0.534140000000     0.275770000000     0.05338    
H37      H      0.047490000000     0.265870000000     0.689760000000     0.0516454  
H38      H      0.996430000000     0.320430000000     0.742150000000     0.0504574  
H39      H      0.904610000000     0.193560000000     0.785960000000     0.0533801  
H40      H      0.712140000000     0.247550000000     0.894610000000     0.0516497  
H41      H      0.657210000000     0.194340000000     0.944650000000     0.0501375  
H42      H      0.742160000000     0.228470000000     0.078870000000     0.0537372  
H43      H      0.718080000000     0.478370000000     0.820430000000     0.0517598  
H44      H      0.664590000000     0.531450000000     0.768800000000     0.0502408  
H45      H      0.749420000000     0.492180000000     0.635910000000     0.053677   
H46      H      0.962920000000     0.572850000000     0.994860000000     0.0516603  
H47      H      0.909670000000     0.521460000000     0.941200000000     0.0501033  
H48      H      0.001910000000     0.390590000000     0.969720000000     0.0538893  
N1       N      0.006160000000     0.020690000000     0.511970000000    -0.160138   
N2       N      0.942050000000     0.962550000000     0.449030000000    -0.162757   
N3       N      0.760680000000     0.769150000000     0.453140000000    -0.160166   
N4       N      0.701570000000     0.707130000000     0.517410000000    -0.162703   
N5       N      0.261270000000     0.266070000000     0.456330000000    -0.160162   
N6       N      0.200330000000     0.205670000000     0.520350000000    -0.16273    
N7       N      0.452560000000     0.450450000000     0.450090000000    -0.160236   
N8       N      0.517360000000     0.509820000000     0.511110000000    -0.162791   
N9       N      0.757560000000     0.955540000000     0.259020000000    -0.160247   
N10      N      0.697560000000     0.016860000000     0.194960000000    -0.162603   
N11      N      0.506980000000     0.207230000000     0.198230000000    -0.160138   
N12      N      0.447150000000     0.270980000000     0.260090000000    -0.162647   
N13      N      0.262030000000     0.949900000000     0.759940000000    -0.160165   
N14      N      0.201340000000     0.011080000000     0.696420000000    -0.162815   
N15      N      0.444420000000     0.759050000000     0.761860000000    -0.160178   
N16      N      0.505280000000     0.695830000000     0.700530000000    -0.162849   
N17      N      0.509430000000     0.013690000000     0.010690000000    -0.160255   
N18      N      0.450690000000     0.948310000000     0.949490000000    -0.16264    
N19      N      0.009710000000     0.708680000000     0.201680000000    -0.160175   
N20      N      0.949420000000     0.773180000000     0.262310000000    -0.162775   
N21      N      0.261420000000     0.764480000000     0.954360000000    -0.160294   
N22      N      0.201240000000     0.704380000000     0.019400000000    -0.162715   
N23      N      0.192330000000     0.516790000000     0.208520000000    -0.160077   
N24      N      0.252150000000     0.454750000000     0.272020000000    -0.162905   
N25      N      0.946770000000     0.260810000000     0.767760000000    -0.160103   
N26      N      0.006490000000     0.196490000000     0.706440000000    -0.16273    
N27      N      0.695960000000     0.207470000000     0.015360000000    -0.160098   
N28      N      0.760490000000     0.269870000000     0.957080000000    -0.162898   
N29      N      0.703200000000     0.515490000000     0.698590000000    -0.160151   
N30      N      0.766080000000     0.453200000000     0.758760000000    -0.162811   
N31      N      0.951950000000     0.452240000000     0.951830000000    -0.160187   
N32      N      0.014490000000     0.512100000000     0.014780000000    -0.162714   
O1       O      0.929370000000     0.375640000000     0.914130000000    -0.242685   
O2       O      0.832270000000     0.396740000000     0.775750000000    -0.24366    
O3       O      0.829370000000     0.323390000000     0.941510000000    -0.244133   
O4       O      0.926560000000     0.340090000000     0.801160000000    -0.241158   
O5       O      0.879660000000     0.276150000000     0.822350000000    -0.244117   
O6       O      0.782410000000     0.303520000000     0.878020000000    -0.242323   
O7       O      0.882210000000     0.441170000000     0.899570000000    -0.243914   
O8       O      0.785940000000     0.420010000000     0.838560000000    -0.242228   
O9       O      0.172850000000     0.551830000000     0.129960000000    -0.2406     
O10      O      0.078650000000     0.693230000000     0.149660000000    -0.245668   
O11      O      0.081070000000     0.528710000000     0.070720000000    -0.243548   
O12      O      0.178220000000     0.664130000000     0.095370000000    -0.241144   
O13      O      0.129320000000     0.654570000000     0.030980000000    -0.244403   
O14      O      0.032590000000     0.591200000000     0.050990000000    -0.242054   
O15      O      0.125750000000     0.572370000000     0.193820000000    -0.244112   
O16      O      0.029080000000     0.630010000000     0.166100000000    -0.241783   
O17      O      0.283390000000     0.916070000000     0.838660000000    -0.241822   
O18      O      0.424970000000     0.837200000000     0.798210000000    -0.241668   
O19      O      0.279570000000     0.800890000000     0.875940000000    -0.242161   
O20      O      0.381040000000     0.936970000000     0.896530000000    -0.243978   
O21      O      0.426960000000     0.871250000000     0.911570000000    -0.240653   
O22      O      0.330940000000     0.815490000000     0.937960000000    -0.245221   
O23      O      0.328470000000     0.894110000000     0.773840000000    -0.245172   
O24      O      0.376390000000     0.773410000000     0.815560000000    -0.244559   
O25      O      0.528130000000     0.092810000000     0.045750000000    -0.242906   
O26      O      0.531040000000     0.127810000000     0.167420000000    -0.241766   
O27      O      0.627580000000     0.152800000000     0.024120000000    -0.243454   
O28      O      0.673080000000     0.055760000000     0.118810000000    -0.2407     
O29      O      0.627690000000     0.069980000000     0.184970000000    -0.242857   
O30      O      0.671280000000     0.170130000000     0.091310000000    -0.242336   
O31      O      0.576200000000     0.029390000000     0.065340000000    -0.24575    
O32      O      0.570900000000     0.193950000000     0.139580000000    -0.245612   
O33      O      0.284790000000     0.296620000000     0.376890000000    -0.242469   
O34      O      0.280420000000     0.419250000000     0.348620000000    -0.241755   
O35      O      0.382320000000     0.279260000000     0.319490000000    -0.24325    
O36      O      0.425320000000     0.373290000000     0.416840000000    -0.242992   
O37      O      0.383780000000     0.441090000000     0.396300000000    -0.24358    
O38      O      0.420270000000     0.347780000000     0.296390000000    -0.241661   
O39      O      0.325620000000     0.324310000000     0.442410000000    -0.244457   
O40      O      0.319620000000     0.398520000000     0.280240000000    -0.244537   
O41      O      0.532530000000     0.619630000000     0.663140000000    -0.241914   
O42      O      0.539010000000     0.589540000000     0.543700000000    -0.242145   
O43      O      0.635380000000     0.570460000000     0.688130000000    -0.243825   
O44      O      0.677290000000     0.668200000000     0.593700000000    -0.241756   
O45      O      0.633720000000     0.651390000000     0.526930000000    -0.243723   
O46      O      0.678400000000     0.550130000000     0.621360000000    -0.242176   
O47      O      0.575050000000     0.687440000000     0.647320000000    -0.245048   
O48      O      0.582370000000     0.525300000000     0.569250000000    -0.242918   
O49      O      0.825390000000     0.901770000000     0.273800000000    -0.245498   
O50      O      0.920810000000     0.883380000000     0.415070000000    -0.241302   
O51      O      0.925200000000     0.849430000000     0.301520000000    -0.241422   
O52      O      0.780180000000     0.804040000000     0.374360000000    -0.242292   
O53      O      0.827190000000     0.824570000000     0.438210000000    -0.245016   
O54      O      0.878600000000     0.783660000000     0.313850000000    -0.244341   
O55      O      0.777840000000     0.920870000000     0.337700000000    -0.241718   
O56      O      0.874620000000     0.947130000000     0.393590000000    -0.242694   
O57      O      0.172110000000     0.170760000000     0.597210000000    -0.241344   
O58      O      0.073010000000     0.028380000000     0.568390000000    -0.243955   
O59      O      0.073450000000     0.187720000000     0.649740000000    -0.243706   
O60      O      0.174170000000     0.047890000000     0.620080000000    -0.241842   
O61      O      0.133660000000     0.067130000000     0.688120000000    -0.244116   
O62      O      0.032780000000     0.119720000000     0.669470000000    -0.241431   
O63      O      0.134500000000     0.147390000000     0.528730000000    -0.244032   
O64      O      0.032690000000     0.096930000000     0.547890000000    -0.243172   
S1       S      0.892110000000     0.046300000000     0.424460000000     0.034641   
S2       S      0.759300000000     0.732880000000     0.595360000000     0.0351336  
S3       S      0.250320000000     0.240120000000     0.600370000000     0.0352315  
S4       S      0.569270000000     0.426910000000     0.534480000000     0.0348494  
S5       S      0.756770000000     0.993570000000     0.117300000000     0.0352856  
S6       S      0.496170000000     0.351470000000     0.224870000000     0.0351901  
S7       S      0.256870000000     0.984050000000     0.617280000000     0.0352533  
S8       S      0.445600000000     0.617700000000     0.721100000000     0.0351062  
S9       S      0.511130000000     0.871540000000     0.973020000000     0.0356225  
S10      S      0.010830000000     0.850100000000     0.242070000000     0.0354693  
S11      S      0.265060000000     0.721950000000     0.094790000000     0.0355229  
S12      S      0.195110000000     0.479910000000     0.350610000000     0.0349287  
S13      S      0.949980000000     0.117830000000     0.733250000000     0.0348935  
S14      S      0.812580000000     0.291820000000     0.040110000000     0.0346677  
S15      S      0.818820000000     0.428960000000     0.676800000000     0.0347496  
S16      S      0.072120000000     0.431510000000     0.031860000000     0.0350461  


