data_structure

_audit_creation_method RASPA-1.0
_audit_creation_date 2023-5-22
_audit_author_name 'Poobodin Mano'

_cell_length_a    24.8503
_cell_length_b    27.8988
_cell_length_c    25.5521
_cell_angle_alpha 90
_cell_angle_beta  90
_cell_angle_gamma 90
_cell_volume      17715.1

_symmetry_cell_setting          triclinic
_symmetry_space_group_name_Hall 'P 1'
_symmetry_space_group_name_H-M  'P 1'
_symmetry_Int_Tables_number     1

_symmetry_equiv_pos_as_xyz 'x,y,z'

loop_
_atom_site_label
_atom_site_type_symbol
_atom_site_fract_x
_atom_site_fract_y
_atom_site_fract_z
_atom_site_charge
C1       C      0.957550000000     0.403070000000     0.937510000000     0.376307   
C2       C      0.829330000000     0.398790000000     0.811010000000     0.350767   
C3       C      0.957370000000     0.272870000000     0.812210000000     0.347358   
C4       C      0.827700000000     0.275010000000     0.940980000000     0.348612   
C5       C      0.080040000000     0.525010000000     0.059660000000     0.348989   
C6       C      0.206290000000     0.523770000000     0.196130000000     0.347797   
C7       C      0.206860000000     0.648160000000     0.064730000000     0.373609   
C8       C      0.077370000000     0.648600000000     0.192690000000     0.34632    
C9       C      0.326570000000     0.899040000000     0.814680000000     0.345843   
C10      C      0.328190000000     0.769930000000     0.941220000000     0.347616   
C11      C      0.454780000000     0.769410000000     0.814150000000     0.373905   
C12      C      0.454850000000     0.899990000000     0.939030000000     0.347206   
C13      C      0.704920000000     0.152940000000     0.062770000000     0.374866   
C14      C      0.577790000000     0.022360000000     0.060320000000     0.373538   
C15      C      0.703570000000     0.019950000000     0.186330000000     0.349464   
C16      C      0.577140000000     0.150180000000     0.188270000000     0.347694   
C17      C      0.327130000000     0.400150000000     0.317850000000     0.375965   
C18      C      0.454280000000     0.270240000000     0.312410000000     0.373914   
C19      C      0.456300000000     0.397240000000     0.440980000000     0.345186   
C20      C      0.329060000000     0.266610000000     0.440240000000     0.348715   
C21      C      0.706310000000     0.519740000000     0.688140000000     0.37641    
C22      C      0.579000000000     0.519210000000     0.562960000000     0.373179   
C23      C      0.577290000000     0.648110000000     0.691220000000     0.346766   
C24      C      0.703950000000     0.650620000000     0.564210000000     0.349777   
C25      C      0.952140000000     0.770890000000     0.311840000000     0.374734   
C26      C      0.823650000000     0.896540000000     0.309010000000     0.376      
C27      C      0.825710000000     0.773140000000     0.442060000000     0.379735   
C28      C      0.951110000000     0.896420000000     0.444220000000     0.352085   
C29      C      0.077280000000     0.149030000000     0.689860000000     0.37464    
C30      C      0.203280000000     0.020300000000     0.692400000000     0.372673   
C31      C      0.073760000000     0.018320000000     0.566260000000     0.380376   
C32      C      0.206390000000     0.144000000000     0.561470000000     0.377535   
C33      C      0.035040000000     0.918390000000     0.481780000000     0.0331473  
C34      C      0.957530000000     0.964060000000     0.500450000000    -0.0632782  
C35      C      0.065870000000     0.949430000000     0.512380000000     0.060649   
C36      C      0.988220000000     0.994990000000     0.531470000000     0.389235   
C37      C      0.720960000000     0.689270000000     0.483060000000     0.0342515  
C38      C      0.777490000000     0.704540000000     0.555280000000    -0.0633127  
C39      C      0.751780000000     0.720250000000     0.452430000000     0.0628971  
C40      C      0.808570000000     0.735500000000     0.524650000000     0.388948   
C41      C      0.307200000000     0.232560000000     0.522780000000     0.0299333  
C42      C      0.260790000000     0.207220000000     0.447180000000    -0.0655614  
C43      C      0.276070000000     0.201630000000     0.553220000000     0.0566628  
C44      C      0.229740000000     0.176010000000     0.477520000000     0.386393   
C45      C      0.463790000000     0.453690000000     0.510210000000     0.0278686  
C46      C      0.541120000000     0.431390000000     0.462570000000    -0.0680661  
C47      C      0.494950000000     0.484330000000     0.540960000000     0.054896   
C48      C      0.572440000000     0.462080000000     0.493280000000     0.383152   
C49      C      0.786160000000     0.980650000000     0.205510000000     0.0322862  
C50      C      0.709580000000     0.965230000000     0.257330000000    -0.0664342  
C51      C      0.816240000000     0.949270000000     0.236460000000     0.0576567  
C52      C      0.739620000000     0.934030000000     0.288560000000     0.384894   
C53      C      0.558590000000     0.186130000000     0.270650000000     0.0307795  
C54      C      0.503660000000     0.204040000000     0.197980000000    -0.0673134  
C55      C      0.527410000000     0.216410000000     0.301840000000     0.0566331  
C56      C      0.472360000000     0.234380000000     0.229100000000     0.383364   
C57      C      0.319280000000     0.957110000000     0.746980000000     0.0272454  
C58      C      0.241470000000     0.932040000000     0.792170000000    -0.0692757  
C59      C      0.287980000000     0.987650000000     0.716230000000     0.0540862  
C60      C      0.210010000000     0.962550000000     0.761420000000     0.381922   
C61      C      0.506210000000     0.704490000000     0.700400000000     0.0281674  
C62      C      0.556940000000     0.681760000000     0.774340000000    -0.0680856  
C63      C      0.475350000000     0.735000000000     0.731620000000     0.0548154  
C64      C      0.526130000000     0.712280000000     0.805700000000     0.383145   
C65      C      0.462110000000     0.957590000000     0.007250000000     0.0291157  
C66      C      0.539590000000     0.934190000000     0.960500000000    -0.067454   
C67      C      0.493340000000     0.988370000000     0.037810000000     0.0553996  
C68      C      0.570970000000     0.964930000000     0.991040000000     0.383628   
C69      C      0.057820000000     0.726620000000     0.224860000000     0.0295814  
C70      C      0.003010000000     0.661420000000     0.249510000000    -0.0666683  
C71      C      0.025990000000     0.757370000000     0.254850000000     0.0565882  
C72      C      0.971050000000     0.692100000000     0.279570000000     0.385282   
C73      C      0.255720000000     0.715030000000     0.951200000000     0.0291344  
C74      C      0.310830000000     0.733520000000     0.023550000000    -0.0677896  
C75      C      0.225150000000     0.684390000000     0.982570000000     0.0550208  
C76      C      0.280460000000     0.702770000000     0.055010000000     0.383018   
C77      C      0.289170000000     0.485290000000     0.215630000000     0.0309984  
C78      C      0.213700000000     0.471880000000     0.269620000000    -0.0669296  
C79      C      0.319520000000     0.454150000000     0.246540000000     0.0580776  
C80      C      0.243900000000     0.440420000000     0.300480000000     0.385222   
C81      C      0.021450000000     0.210030000000     0.804250000000     0.0298532  
C82      C      0.983120000000     0.243960000000     0.728390000000    -0.0666943  
C83      C      0.051610000000     0.178830000000     0.773190000000     0.0571388  
C84      C      0.013250000000     0.212780000000     0.697180000000     0.386584   
C85      C      0.758240000000     0.216980000000     0.949290000000     0.0298815  
C86      C      0.804650000000     0.243390000000     0.024440000000    -0.066957   
C87      C      0.727270000000     0.186340000000     0.980220000000     0.0564059  
C88      C      0.773890000000     0.212550000000     0.055510000000     0.384076   
C89      C      0.744330000000     0.430700000000     0.786370000000     0.032041   
C90      C      0.822820000000     0.456240000000     0.742620000000    -0.0644201  
C91      C      0.713460000000     0.461260000000     0.755220000000     0.0578028  
C92      C      0.792030000000     0.486840000000     0.711340000000     0.387005   
C93      C      0.072680000000     0.456480000000     0.004820000000     0.0291406  
C94      C      0.996390000000     0.504660000000     0.020450000000    -0.0671748  
C95      C      0.041590000000     0.425850000000     0.973940000000     0.056068   
C96      C      0.965070000000     0.473870000000     0.989910000000     0.384487   
Cd1      Cd     0.893540000000     0.336800000000     0.876320000000     0.523722   
Cd2      Cd     0.142450000000     0.585280000000     0.128960000000     0.522644   
Cd3      Cd     0.391040000000     0.834460000000     0.877110000000     0.522636   
Cd4      Cd     0.641300000000     0.086610000000     0.124290000000     0.525177   
Cd5      Cd     0.391280000000     0.333390000000     0.378120000000     0.525007   
Cd6      Cd     0.641230000000     0.584670000000     0.626670000000     0.525562   
Cd7      Cd     0.888580000000     0.835420000000     0.375790000000     0.527069   
Cd8      Cd     0.140050000000     0.083200000000     0.626910000000     0.528855   
F1       F      0.962670000000     0.032270000000     0.555040000000    -0.404909   
F2       F      0.851430000000     0.757360000000     0.547510000000    -0.410471   
F3       F      0.192020000000     0.148960000000     0.452800000000    -0.410882   
F4       F      0.626020000000     0.464650000000     0.482970000000    -0.411758   
F5       F      0.714200000000     0.911970000000     0.329030000000    -0.415055   
F6       F      0.430200000000     0.257250000000     0.206190000000    -0.416616   
F7       F      0.156130000000     0.963640000000     0.770520000000    -0.41556    
F8       F      0.538000000000     0.714530000000     0.857570000000    -0.41402    
F9       F      0.624640000000     0.966950000000     0.981030000000    -0.414755   
F10      F      0.928650000000     0.672810000000     0.305740000000    -0.411943   
F11      F      0.294790000000     0.698290000000     0.106110000000    -0.416581   
F12      F      0.219230000000     0.419390000000     0.342020000000    -0.412228   
F13      F      0.007390000000     0.215950000000     0.644400000000    -0.405419   
F14      F      0.783510000000     0.212030000000     0.107870000000    -0.413751   
F15      F      0.818040000000     0.513690000000     0.674870000000    -0.408793   
F16      F      0.912050000000     0.484530000000     0.983910000000    -0.413848   
H1       H      0.108600000000     0.942130000000     0.515830000000     0.0601021  
H2       H      0.055260000000     0.888630000000     0.462840000000     0.0661814  
H3       H      0.914810000000     0.971210000000     0.496690000000     0.123553   
H4       H      0.739920000000     0.725240000000     0.411950000000     0.0677655  
H5       H      0.686730000000     0.671760000000     0.464940000000     0.0700031  
H6       H      0.789060000000     0.699320000000     0.595810000000     0.124695   
H7       H      0.283630000000     0.200770000000     0.595020000000     0.0559511  
H8       H      0.337320000000     0.254230000000     0.542350000000     0.0623492  
H9       H      0.253400000000     0.208370000000     0.405370000000     0.122838   
H10      H      0.474760000000     0.504510000000     0.571470000000     0.0558433  
H11      H      0.421030000000     0.451530000000     0.518330000000     0.0640425  
H12      H      0.560990000000     0.411070000000     0.431980000000     0.11916    
H13      H      0.858310000000     0.944190000000     0.226650000000     0.0592963  
H14      H      0.806210000000     0.998340000000     0.173130000000     0.068855   
H15      H      0.667480000000     0.970480000000     0.266970000000     0.117831   
H16      H      0.538470000000     0.220110000000     0.342700000000     0.0592336  
H17      H      0.592260000000     0.167790000000     0.288740000000     0.0673797  
H18      H      0.492850000000     0.200150000000     0.157070000000     0.116529   
H19      H      0.308290000000     0.008910000000     0.686690000000     0.0555751  
H20      H      0.362290000000     0.956100000000     0.739880000000     0.0618753  
H21      H      0.221440000000     0.910650000000     0.821780000000     0.116644   
H22      H      0.443540000000     0.755320000000     0.712860000000     0.0557695  
H23      H      0.496910000000     0.702550000000     0.658990000000     0.0622397  
H24      H      0.588840000000     0.661340000000     0.792840000000     0.119068   
H25      H      0.473160000000     0.009060000000     0.067910000000     0.0577243  
H26      H      0.419260000000     0.955810000000     0.015050000000     0.0634409  
H27      H      0.559540000000     0.913380000000     0.930340000000     0.121527   
H28      H      0.036770000000     0.795030000000     0.255730000000     0.0580442  
H29      H      0.091690000000     0.741840000000     0.203880000000     0.0660491  
H30      H      0.992480000000     0.623700000000     0.248440000000     0.121709   
H31      H      0.191630000000     0.665770000000     0.964540000000     0.0568912  
H32      H      0.244490000000     0.718790000000     0.910390000000     0.0636434  
H33      H      0.344380000000     0.752280000000     0.041380000000     0.118895   
H34      H      0.361220000000     0.448310000000     0.235750000000     0.0626719  
H35      H      0.308730000000     0.502140000000     0.182450000000     0.068207   
H36      H      0.171950000000     0.477900000000     0.280110000000     0.120455   
H37      H      0.078130000000     0.153710000000     0.792780000000     0.0609926  
H38      H      0.025960000000     0.207660000000     0.846380000000     0.0640163  
H39      H      0.956500000000     0.269160000000     0.709050000000     0.121345   
H40      H      0.697180000000     0.164490000000     0.960830000000     0.0605403  
H41      H      0.750680000000     0.217500000000     0.907490000000     0.0642272  
H42      H      0.834840000000     0.265360000000     0.043520000000     0.120052   
H43      H      0.670350000000     0.461990000000     0.761750000000     0.057836   
H44      H      0.723780000000     0.409190000000     0.815530000000     0.0647815  
H45      H      0.865970000000     0.455370000000     0.736340000000     0.121547   
H46      H      0.061340000000     0.395140000000     0.956390000000     0.0566576  
H47      H      0.115000000000     0.448160000000     0.009740000000     0.0627593  
H48      H      0.976880000000     0.535440000000     0.038140000000     0.119678   
N1       N      0.981040000000     0.926030000000     0.475520000000    -0.135236   
N2       N      0.042600000000     0.987810000000     0.537040000000    -0.205186   
N3       N      0.733940000000     0.681400000000     0.534370000000    -0.134673   
N4       N      0.795660000000     0.743230000000     0.473060000000    -0.204399   
N5       N      0.299240000000     0.235520000000     0.469890000000    -0.135987   
N6       N      0.237210000000     0.173520000000     0.530720000000    -0.206808   
N7       N      0.486940000000     0.427310000000     0.471080000000    -0.13678    
N8       N      0.549190000000     0.488620000000     0.532520000000    -0.207248   
N9       N      0.732960000000     0.988700000000     0.216170000000    -0.135782   
N10      N      0.793160000000     0.926260000000     0.278190000000    -0.206867   
N11      N      0.546630000000     0.180010000000     0.218800000000    -0.136288   
N12      N      0.484350000000     0.240540000000     0.281160000000    -0.206783   
N13      N      0.295940000000     0.929300000000     0.784800000000    -0.137582   
N14      N      0.233390000000     0.990320000000     0.723290000000    -0.207319   
N15      N      0.546960000000     0.677990000000     0.721830000000    -0.137209   
N16      N      0.485290000000     0.738980000000     0.784190000000    -0.207541   
N17      N      0.485330000000     0.930510000000     0.968730000000    -0.136526   
N18      N      0.547720000000     0.992020000000     0.029820000000    -0.20726    
N19      N      0.046270000000     0.678720000000     0.222280000000    -0.135949   
N20      N      0.982690000000     0.740180000000     0.282240000000    -0.206898   
N21      N      0.298400000000     0.739600000000     0.971810000000    -0.136706   
N22      N      0.237440000000     0.678260000000     0.034430000000    -0.207327   
N23      N      0.236280000000     0.493910000000     0.227100000000    -0.136242   
N24      N      0.296880000000     0.431430000000     0.288680000000    -0.206258   
N25      N      0.987230000000     0.242460000000     0.781780000000    -0.136849   
N26      N      0.047500000000     0.180110000000     0.719720000000    -0.205408   
N27      N      0.796940000000     0.245340000000     0.971440000000    -0.136903   
N28      N      0.735230000000     0.183880000000     0.033230000000    -0.20664    
N29      N      0.798960000000     0.428400000000     0.780120000000    -0.135667   
N30      N      0.737240000000     0.489440000000     0.717870000000    -0.206055   
N31      N      0.049920000000     0.495650000000     0.028240000000    -0.137053   
N32      N      0.987740000000     0.434230000000     0.966880000000    -0.207373   
O1       O      0.808440000000     0.372500000000     0.846020000000    -0.227159   
O2       O      0.863360000000     0.302200000000     0.960280000000    -0.226795   
O3       O      0.907260000000     0.407980000000     0.931820000000    -0.194462   
O4       O      0.925220000000     0.303140000000     0.792570000000    -0.227193   
O5       O      0.960050000000     0.272350000000     0.861700000000    -0.232372   
O6       O      0.978210000000     0.367190000000     0.914700000000    -0.239221   
O7       O      0.880050000000     0.396180000000     0.806400000000    -0.223228   
O8       O      0.822470000000     0.276700000000     0.891700000000    -0.232061   
O9       O      0.157460000000     0.533060000000     0.205900000000    -0.227311   
O10      O      0.117460000000     0.663550000000     0.166820000000    -0.228417   
O11      O      0.129060000000     0.516490000000     0.069590000000    -0.234932   
O12      O      0.217060000000     0.640920000000     0.112680000000    -0.19048    
O13      O      0.166450000000     0.625940000000     0.046490000000    -0.241073   
O14      O      0.060310000000     0.561890000000     0.081300000000    -0.227536   
O15      O      0.225520000000     0.543330000000     0.155550000000    -0.22583    
O16      O      0.067690000000     0.604140000000     0.189290000000    -0.221658   
O17      O      0.318190000000     0.776030000000     0.893050000000    -0.231465   
O18      O      0.475260000000     0.874370000000     0.903230000000    -0.222436   
O19      O      0.306160000000     0.872790000000     0.849940000000    -0.229859   
O20      O      0.417140000000     0.794370000000     0.794770000000    -0.240794   
O21      O      0.462500000000     0.774590000000     0.862790000000    -0.192898   
O22      O      0.377010000000     0.895390000000     0.808550000000    -0.234173   
O23      O      0.367350000000     0.793730000000     0.959440000000    -0.225252   
O24      O      0.404610000000     0.895400000000     0.945900000000    -0.232393   
O25      O      0.628140000000     0.026840000000     0.054620000000    -0.19382    
O26      O      0.617040000000     0.127360000000     0.206480000000    -0.226005   
O27      O      0.668570000000     0.126970000000     0.042710000000    -0.233901   
O28      O      0.724260000000     0.043280000000     0.148830000000    -0.221874   
O29      O      0.654080000000     0.027560000000     0.194810000000    -0.228148   
O30      O      0.711620000000     0.148180000000     0.111620000000    -0.193026   
O31      O      0.556850000000     0.047760000000     0.096050000000    -0.237624   
O32      O      0.567100000000     0.143610000000     0.140160000000    -0.228075   
O33      O      0.414240000000     0.293450000000     0.295160000000    -0.191918   
O34      O      0.365370000000     0.292790000000     0.460030000000    -0.232207   
O35      O      0.376320000000     0.392420000000     0.307940000000    -0.231973   
O36      O      0.476420000000     0.372100000000     0.404610000000    -0.226643   
O37      O      0.406080000000     0.392790000000     0.447920000000    -0.229631   
O38      O      0.307750000000     0.376860000000     0.355980000000    -0.190785   
O39      O      0.464970000000     0.276290000000     0.360480000000    -0.23782    
O40      O      0.321730000000     0.271250000000     0.391440000000    -0.220227   
O41      O      0.557920000000     0.543880000000     0.599210000000    -0.240448   
O42      O      0.714600000000     0.642750000000     0.611930000000    -0.217402   
O43      O      0.726340000000     0.546650000000     0.653300000000    -0.185409   
O44      O      0.615220000000     0.623060000000     0.709880000000    -0.227839   
O45      O      0.569120000000     0.643780000000     0.642520000000    -0.233844   
O46      O      0.655800000000     0.522830000000     0.694160000000    -0.238001   
O47      O      0.629140000000     0.524830000000     0.556580000000    -0.19002    
O48      O      0.664040000000     0.628040000000     0.545670000000    -0.224475   
O49      O      0.872810000000     0.888370000000     0.299510000000    -0.239396   
O50      O      0.901550000000     0.903720000000     0.435800000000    -0.222615   
O51      O      0.962550000000     0.815250000000     0.314900000000    -0.234902   
O52      O      0.813650000000     0.780810000000     0.394560000000    -0.218844   
O53      O      0.867260000000     0.794610000000     0.458810000000    -0.189419   
O54      O      0.912000000000     0.756780000000     0.338120000000    -0.192684   
O55      O      0.804790000000     0.876010000000     0.349140000000    -0.191014   
O56      O      0.971460000000     0.860450000000     0.421330000000    -0.226309   
O57      O      0.152670000000     0.023800000000     0.697060000000    -0.1911     
O58      O      0.170490000000     0.116820000000     0.542640000000    -0.189314   
O59      O      0.108970000000     0.118700000000     0.710140000000    -0.230787   
O60      O      0.054110000000     0.053550000000     0.590960000000    -0.180412   
O61      O      0.124270000000     0.013200000000     0.569930000000    -0.233698   
O62      O      0.074860000000     0.148670000000     0.640390000000    -0.18092    
O63      O      0.224470000000     0.046180000000     0.657190000000    -0.239512   
O64      O      0.211730000000     0.142570000000     0.610760000000    -0.239454   


