data_structure

_audit_creation_method RASPA-1.0
_audit_creation_date 2023-5-22
_audit_author_name 'Poobodin Mano'

_cell_length_a    27.4497
_cell_length_b    25.6062
_cell_length_c    25.3403
_cell_angle_alpha 90
_cell_angle_beta  90
_cell_angle_gamma 90
_cell_volume      17811.3

_symmetry_cell_setting          triclinic
_symmetry_space_group_name_Hall 'P 1'
_symmetry_space_group_name_H-M  'P 1'
_symmetry_Int_Tables_number     1

_symmetry_equiv_pos_as_xyz 'x,y,z'

loop_
_atom_site_label
_atom_site_type_symbol
_atom_site_fract_x
_atom_site_fract_y
_atom_site_fract_z
_atom_site_charge
C1       C      0.900510000000     0.434390000000     0.944410000000     0.346706   
C2       C      0.768080000000     0.438380000000     0.824350000000     0.347724   
C3       C      0.894430000000     0.309830000000     0.815210000000     0.345414   
C4       C      0.773580000000     0.302910000000     0.948040000000     0.348117   
C5       C      0.027660000000     0.557040000000     0.060860000000     0.347943   
C6       C      0.023180000000     0.685080000000     0.187940000000     0.347517   
C7       C      0.155170000000     0.561300000000     0.191230000000     0.348079   
C8       C      0.152370000000     0.687700000000     0.061970000000     0.345      
C9       C      0.270910000000     0.811850000000     0.936710000000     0.347983   
C10      C      0.386500000000     0.811230000000     0.793080000000     0.350262   
C11      C      0.268690000000     0.941590000000     0.810910000000     0.34631    
C12      C      0.402680000000     0.933040000000     0.930800000000     0.347073   
C13      C      0.650500000000     0.177710000000     0.066840000000     0.34644    
C14      C      0.521920000000     0.175500000000     0.194520000000     0.347595   
C15      C      0.523530000000     0.051130000000     0.059420000000     0.346023   
C16      C      0.647360000000     0.047870000000     0.192230000000     0.346124   
C17      C      0.276960000000     0.435900000000     0.311370000000     0.346065   
C18      C      0.270070000000     0.311080000000     0.440100000000     0.347743   
C19      C      0.400610000000     0.302000000000     0.314130000000     0.34554    
C20      C      0.405530000000     0.431430000000     0.437890000000     0.347663   
C21      C      0.644870000000     0.558470000000     0.700470000000     0.346054   
C22      C      0.524490000000     0.553540000000     0.564660000000     0.345608   
C23      C      0.513390000000     0.684160000000     0.686380000000     0.346494   
C24      C      0.649130000000     0.683850000000     0.569660000000     0.346164   
C25      C      0.899920000000     0.803140000000     0.313910000000     0.346109   
C26      C      0.769420000000     0.925550000000     0.315260000000     0.347359   
C27      C      0.771970000000     0.805630000000     0.446890000000     0.347684   
C28      C      0.899570000000     0.930940000000     0.443320000000     0.345755   
C29      C      0.014680000000     0.190490000000     0.687280000000     0.347806   
C30      C      0.146860000000     0.067090000000     0.691020000000     0.347786   
C31      C      0.017970000000     0.058610000000     0.565080000000     0.347177   
C32      C      0.143790000000     0.190710000000     0.560080000000     0.345914   
C33      C      0.958430000000     0.998550000000     0.451270000000     0.0335946  
C34      C      0.928790000000     0.956820000000     0.527560000000     0.0195752  
C35      C      0.987990000000     0.030310000000     0.482490000000     0.0332065  
C36      C      0.958280000000     0.988580000000     0.559350000000     0.0693457  
C37      C      0.712810000000     0.692340000000     0.506710000000     0.0337262  
C38      C      0.677200000000     0.767670000000     0.543410000000     0.0197096  
C39      C      0.743430000000     0.723550000000     0.476140000000     0.0329164  
C40      C      0.707800000000     0.799450000000     0.512890000000     0.069315   
C41      C      0.206750000000     0.198620000000     0.496280000000     0.0334067  
C42      C      0.172890000000     0.274270000000     0.534230000000     0.0196101  
C43      C      0.238280000000     0.229480000000     0.466490000000     0.0329308  
C44      C      0.204460000000     0.305710000000     0.504510000000     0.0692265  
C45      C      0.461380000000     0.490950000000     0.554080000000     0.0336932  
C46      C      0.502000000000     0.523700000000     0.479270000000     0.0199467  
C47      C      0.431890000000     0.460390000000     0.521630000000     0.0329698  
C48      C      0.472560000000     0.493140000000     0.446230000000     0.0693082  
C49      C      0.712210000000     0.038890000000     0.253550000000     0.0336608  
C50      C      0.671590000000     0.963960000000     0.222540000000     0.019407   
C51      C      0.742530000000     0.007570000000     0.284290000000     0.0329859  
C52      C      0.701860000000     0.932050000000     0.253350000000     0.0693365  
C53      C      0.429250000000     0.271190000000     0.231340000000     0.0335723  
C54      C      0.462060000000     0.236800000000     0.309810000000     0.0196722  
C55      C      0.459940000000     0.239050000000     0.201890000000     0.0331051  
C56      C      0.493130000000     0.204310000000     0.280600000000     0.0691806  
C57      C      0.202420000000     0.952500000000     0.751880000000     0.0338396  
C58      C      0.244300000000     0.026450000000     0.783330000000     0.0201644  
C59      C      0.172310000000     0.984560000000     0.721800000000     0.0328976  
C60      C      0.214040000000     0.059170000000     0.753330000000     0.0692297  
C61      C      0.446520000000     0.743230000000     0.682740000000     0.0297082  
C62      C      0.481220000000     0.720270000000     0.765820000000     0.0295306  
C63      C      0.413080000000     0.776370000000     0.707830000000     0.0399763  
C64      C      0.447590000000     0.753340000000     0.789640000000     0.0388723  
C65      C      0.459090000000     0.990360000000     0.047750000000     0.0331141  
C66      C      0.500560000000     0.023110000000     0.973470000000     0.0196377  
C67      C      0.429250000000     0.960710000000     0.014860000000     0.0320397  
C68      C      0.470730000000     0.993390000000     0.939970000000     0.0685281  
C69      C      0.963350000000     0.740760000000     0.303840000000     0.0337442  
C70      C      0.926920000000     0.777900000000     0.228590000000     0.0195055  
C71      C      0.994080000000     0.711390000000     0.271560000000     0.0329876  
C72      C      0.957570000000     0.748560000000     0.195740000000     0.0694793  
C73      C      0.217040000000     0.697610000000     0.000430000000     0.0326353  
C74      C      0.175750000000     0.771900000000     0.031920000000     0.0189985  
C75      C      0.246620000000     0.729420000000     0.969290000000     0.0324324  
C76      C      0.205170000000     0.804260000000     0.000690000000     0.0689026  
C77      C      0.214020000000     0.446380000000     0.247970000000     0.0340241  
C78      C      0.250730000000     0.520600000000     0.285690000000     0.0199872  
C79      C      0.183590000000     0.478480000000     0.218200000000     0.03316    
C80      C      0.220310000000     0.553310000000     0.255930000000     0.0694323  
C81      C      0.959750000000     0.250240000000     0.803720000000     0.033554   
C82      C      0.916930000000     0.280910000000     0.729440000000     0.0196357  
C83      C      0.989590000000     0.220440000000     0.771020000000     0.0329122  
C84      C      0.946750000000     0.251050000000     0.696110000000     0.0693048  
C85      C      0.676570000000     0.261200000000     0.037250000000     0.0337825  
C86      C      0.718180000000     0.185830000000     0.009010000000     0.020042   
C87      C      0.708000000000     0.292110000000     0.007380000000     0.0331476  
C88      C      0.750010000000     0.216510000000     0.978830000000     0.0693813  
C89      C      0.673990000000     0.476170000000     0.729920000000     0.0335899  
C90      C      0.706070000000     0.553300000000     0.766620000000     0.0196996  
C91      C      0.705230000000     0.446580000000     0.761310000000     0.033078   
C92      C      0.737630000000     0.523930000000     0.798460000000     0.0693114  
C93      C      0.929970000000     0.466380000000     0.026420000000     0.0336687  
C94      C      0.967520000000     0.493010000000     0.947360000000     0.0200109  
C95      C      0.962340000000     0.497300000000     0.055070000000     0.0331298  
C96      C      0.000290000000     0.524220000000     0.975750000000     0.0691376  
Cd1      Cd     0.833340000000     0.371530000000     0.883830000000     0.512788   
Cd2      Cd     0.089830000000     0.622260000000     0.125780000000     0.512814   
Cd3      Cd     0.333390000000     0.873450000000     0.868580000000     0.510459   
Cd4      Cd     0.585160000000     0.113040000000     0.127910000000     0.512249   
Cd5      Cd     0.338230000000     0.369620000000     0.375620000000     0.512823   
Cd6      Cd     0.583500000000     0.619730000000     0.631300000000     0.512055   
Cd7      Cd     0.836480000000     0.865800000000     0.379730000000     0.512562   
Cd8      Cd     0.080960000000     0.127200000000     0.625340000000     0.513013   
H1       H      0.010600000000     0.058720000000     0.462300000000     0.0503803  
H2       H      0.959650000000     0.003880000000     0.408830000000     0.0496322  
H3       H      0.905770000000     0.927960000000     0.546590000000     0.0522824  
H4       H      0.988770000000     0.940450000000     0.642050000000     0.0496141  
H5       H      0.768850000000     0.703730000000     0.450210000000     0.0503211  
H6       H      0.716050000000     0.650290000000     0.502950000000     0.0494919  
H7       H      0.651370000000     0.786310000000     0.569820000000     0.0528478  
H8       H      0.731510000000     0.884080000000     0.561070000000     0.0491914  
H9       H      0.263340000000     0.209370000000     0.440380000000     0.0501407  
H10      H      0.208990000000     0.156570000000     0.491780000000     0.0491878  
H11      H      0.147350000000     0.293170000000     0.560790000000     0.0525209  
H12      H      0.228990000000     0.389550000000     0.553600000000     0.0500765  
H13      H      0.404720000000     0.436190000000     0.540820000000     0.0494398  
H14      H      0.455650000000     0.488820000000     0.596370000000     0.0492518  
H15      H      0.529620000000     0.548310000000     0.461320000000     0.0534469  
H16      H      0.518640000000     0.460720000000     0.364210000000     0.0488022  
H17      H      0.769950000000     0.027220000000     0.307860000000     0.0505695  
H18      H      0.717640000000     0.080820000000     0.254910000000     0.0497075  
H19      H      0.643730000000     0.945560000000     0.198490000000     0.0525897  
H20      H      0.718240000000     0.843060000000     0.209860000000     0.0497537  
H21      H      0.457380000000     0.241810000000     0.159260000000     0.0505395  
H22      H      0.404680000000     0.296940000000     0.210210000000     0.04963    
H23      H      0.463680000000     0.234970000000     0.352570000000     0.0529401  
H24      H      0.508610000000     0.116440000000     0.326750000000     0.0492524  
H25      H      0.144460000000     0.965530000000     0.698290000000     0.0493058  
H26      H      0.196470000000     0.910670000000     0.749990000000     0.049667   
H27      H      0.272630000000     0.044140000000     0.807280000000     0.0531602  
H28      H      0.258950000000     0.140820000000     0.719930000000     0.0489602  
H29      H      0.386750000000     0.798270000000     0.684930000000     0.0443712  
H30      H      0.444920000000     0.740360000000     0.640090000000     0.0505433  
H31      H      0.507310000000     0.699430000000     0.790070000000     0.0472139  
H32      H      0.462300000000     0.755870000000     0.900170000000     0.0295045  
H33      H      0.401610000000     0.936870000000     0.033720000000     0.0486225  
H34      H      0.453160000000     0.987870000000     0.089990000000     0.0487235  
H35      H      0.528690000000     0.047320000000     0.955930000000     0.0526802  
H36      H      0.516560000000     0.960660000000     0.857940000000     0.0467854  
H37      H      0.019930000000     0.685750000000     0.290970000000     0.0504436  
H38      H      0.966930000000     0.736430000000     0.346240000000     0.0494118  
H39      H      0.900650000000     0.803960000000     0.210370000000     0.0523415  
H40      H      0.979350000000     0.797270000000     0.110210000000     0.0497257  
H41      H      0.274030000000     0.710240000000     0.945300000000     0.0485511  
H42      H      0.223020000000     0.655760000000     0.999070000000     0.0487972  
H43      H      0.148010000000     0.789910000000     0.056440000000     0.052026   
H44      H      0.221870000000     0.892840000000     0.044920000000     0.04926    
H45      H      0.157770000000     0.459390000000     0.192180000000     0.0508087  
H46      H      0.210190000000     0.404450000000     0.243570000000     0.0499126  
H47      H      0.277010000000     0.538440000000     0.312150000000     0.053326   
H48      H      0.262410000000     0.639200000000     0.229840000000     0.0488613  
H49      H      0.017720000000     0.197330000000     0.789950000000     0.0504125  
H50      H      0.966250000000     0.248640000000     0.845910000000     0.0497329  
H51      H      0.888360000000     0.304500000000     0.711850000000     0.0531588  
H52      H      0.960630000000     0.294940000000     0.606120000000     0.0504814  
H53      H      0.702030000000     0.333970000000     0.008280000000     0.0499447  
H54      H      0.648160000000     0.280520000000     0.059700000000     0.0495132  
H55      H      0.723230000000     0.143780000000     0.009010000000     0.0529037  
H56      H      0.779470000000     0.169330000000     0.895120000000     0.0496736  
H57      H      0.703150000000     0.404460000000     0.757340000000     0.0501887  
H58      H      0.649560000000     0.455630000000     0.703450000000     0.0495006  
H59      H      0.707180000000     0.595570000000     0.769620000000     0.052687   
H60      H      0.752980000000     0.567150000000     0.888520000000     0.0487304  
H61      H      0.958370000000     0.497400000000     0.097660000000     0.0505423  
H62      H      0.902860000000     0.444230000000     0.048060000000     0.0495584  
H63      H      0.970540000000     0.492030000000     0.904650000000     0.053169   
H64      H      0.025620000000     0.606560000000     0.924550000000     0.0493377  
N1       N      0.928870000000     0.961960000000     0.473860000000    -0.159656   
N2       N      0.988140000000     0.025840000000     0.536500000000    -0.165804   
N3       N      0.679650000000     0.714450000000     0.540100000000    -0.159642   
N4       N      0.741130000000     0.777070000000     0.478660000000    -0.165885   
N5       N      0.174250000000     0.221050000000     0.530190000000    -0.159824   
N6       N      0.237650000000     0.282970000000     0.470380000000    -0.166049   
N7       N      0.496130000000     0.522780000000     0.532840000000    -0.159373   
N8       N      0.436780000000     0.461490000000     0.467710000000    -0.166003   
N9       N      0.676920000000     0.017050000000     0.222650000000    -0.159696   
N10      N      0.737870000000     0.954180000000     0.284410000000    -0.165958   
N11      N      0.430470000000     0.270120000000     0.285190000000    -0.159659   
N12      N      0.492160000000     0.205660000000     0.225990000000    -0.16592    
N13      N      0.238510000000     0.973430000000     0.782340000000    -0.159494   
N14      N      0.177770000000     0.037860000000     0.722040000000    -0.166105   
N15      N      0.480460000000     0.715560000000     0.711690000000    -0.159824   
N16      N      0.414830000000     0.780490000000     0.761140000000    -0.167155   
N17      N      0.494500000000     0.021690000000     0.027020000000    -0.159754   
N18      N      0.434380000000     0.962210000000     0.960970000000    -0.166493   
N19      N      0.929920000000     0.773990000000     0.282300000000    -0.159773   
N20      N      0.991610000000     0.714990000000     0.217540000000    -0.165915   
N21      N      0.181640000000     0.718900000000     0.031580000000    -0.159874   
N22      N      0.240920000000     0.782700000000     0.968870000000    -0.166397   
N23      N      0.247440000000     0.467470000000     0.281700000000    -0.159591   
N24      N      0.186330000000     0.531920000000     0.221840000000    -0.165946   
N25      N      0.923560000000     0.280460000000     0.782910000000    -0.159585   
N26      N      0.983580000000     0.220590000000     0.717230000000    -0.166053   
N27      N      0.681590000000     0.208140000000     0.037830000000    -0.159585   
N28      N      0.744570000000     0.270250000000     0.977720000000    -0.166064   
N29      N      0.674730000000     0.529430000000     0.732320000000    -0.159708   
N30      N      0.737440000000     0.469940000000     0.795390000000    -0.166072   
N31      N      0.932510000000     0.464440000000     0.972660000000    -0.159699   
N32      N      0.997440000000     0.526590000000     0.030240000000    -0.16603    
O1       O      0.799340000000     0.456120000000     0.856260000000    -0.246246   
O2       O      0.806670000000     0.286310000000     0.917750000000    -0.246283   
O3       O      0.902010000000     0.432030000000     0.894520000000    -0.244968   
O4       O      0.860430000000     0.338260000000     0.797310000000    -0.24349    
O5       O      0.899920000000     0.310220000000     0.864860000000    -0.243007   
O6       O      0.867590000000     0.407410000000     0.966490000000    -0.244512   
O7       O      0.767150000000     0.389030000000     0.820280000000    -0.244332   
O8       O      0.768350000000     0.352100000000     0.948680000000    -0.245605   
O9       O      0.023630000000     0.685660000000     0.138080000000    -0.244935   
O10      O      0.156350000000     0.638400000000     0.062090000000    -0.24432    
O11      O      0.024290000000     0.557990000000     0.110750000000    -0.244664   
O12      O      0.124510000000     0.540340000000     0.160390000000    -0.245215   
O13      O      0.154950000000     0.610660000000     0.191560000000    -0.245324   
O14      O      0.060200000000     0.586330000000     0.041670000000    -0.245693   
O15      O      0.054130000000     0.654870000000     0.209120000000    -0.244329   
O16      O      0.119500000000     0.706410000000     0.091530000000    -0.246161   
O17      O      0.394820000000     0.809730000000     0.842430000000    -0.278456   
O18      O      0.402860000000     0.933570000000     0.880910000000    -0.245886   
O19      O      0.304080000000     0.791100000000     0.908850000000    -0.24814    
O20      O      0.263930000000     0.892380000000     0.810710000000    -0.242419   
O21      O      0.303410000000     0.959430000000     0.838560000000    -0.243675   
O22      O      0.267320000000     0.860850000000     0.932410000000    -0.245482   
O23      O      0.353280000000     0.841330000000     0.776740000000    -0.24323    
O24      O      0.370350000000     0.904300000000     0.951530000000    -0.249575   
O25      O      0.519790000000     0.177350000000     0.144570000000    -0.243892   
O26      O      0.614330000000     0.028860000000     0.163050000000    -0.245333   
O27      O      0.616110000000     0.197090000000     0.093860000000    -0.243766   
O28      O      0.556700000000     0.080590000000     0.041510000000    -0.245762   
O29      O      0.518840000000     0.050590000000     0.109160000000    -0.244674   
O30      O      0.654340000000     0.128430000000     0.068190000000    -0.244588   
O31      O      0.553420000000     0.144480000000     0.212940000000    -0.245527   
O32      O      0.651450000000     0.097150000000     0.191480000000    -0.243436   
O33      O      0.272760000000     0.360330000000     0.441350000000    -0.245016   
O34      O      0.405840000000     0.431430000000     0.388010000000    -0.244551   
O35      O      0.274660000000     0.386540000000     0.308840000000    -0.243568   
O36      O      0.371090000000     0.333520000000     0.292570000000    -0.243911   
O37      O      0.400960000000     0.301890000000     0.364130000000    -0.245275   
O38      O      0.308000000000     0.454300000000     0.343330000000    -0.244471   
O39      O      0.299600000000     0.288990000000     0.408780000000    -0.245288   
O40      O      0.373670000000     0.402210000000     0.458890000000    -0.24546    
O41      O      0.519740000000     0.553880000000     0.614430000000    -0.243155   
O42      O      0.617780000000     0.703280000000     0.600630000000    -0.245765   
O43      O      0.615640000000     0.537500000000     0.668130000000    -0.245089   
O44      O      0.545160000000     0.657890000000     0.711140000000    -0.24437    
O45      O      0.514200000000     0.680040000000     0.636580000000    -0.245178   
O46      O      0.645250000000     0.607930000000     0.701050000000    -0.245367   
O47      O      0.556790000000     0.583730000000     0.546050000000    -0.243179   
O48      O      0.650260000000     0.634440000000     0.567440000000    -0.243264   
O49      O      0.768490000000     0.876240000000     0.317500000000    -0.244507   
O50      O      0.871910000000     0.896630000000     0.463260000000    -0.246416   
O51      O      0.868840000000     0.834480000000     0.294940000000    -0.246938   
O52      O      0.802620000000     0.783970000000     0.416470000000    -0.244146   
O53      O      0.771730000000     0.854970000000     0.445570000000    -0.244669   
O54      O      0.901590000000     0.800600000000     0.363810000000    -0.244543   
O55      O      0.801910000000     0.947140000000     0.343390000000    -0.243535   
O56      O      0.898230000000     0.934940000000     0.393500000000    -0.243502   
O57      O      0.147780000000     0.116420000000     0.689630000000    -0.24481    
O58      O      0.144590000000     0.141270000000     0.557900000000    -0.24484    
O59      O      0.047810000000     0.162850000000     0.708110000000    -0.245326   
O60      O      0.019510000000     0.058430000000     0.614910000000    -0.24402    
O61      O      0.045940000000     0.091410000000     0.542930000000    -0.243997   
O62      O      0.012630000000     0.188440000000     0.637490000000    -0.245084   
O63      O      0.115130000000     0.045970000000     0.661640000000    -0.245961   
O64      O      0.113450000000     0.210420000000     0.592050000000    -0.246532   
S1       S      0.954710000000     0.977040000000     0.628070000000    -0.00326546 
S2       S      0.700840000000     0.867550000000     0.521810000000    -0.00259144 
S3       S      0.198530000000     0.373870000000     0.513800000000    -0.00273848 
S4       S      0.484830000000     0.497680000000     0.377870000000    -0.00180907 
S5       S      0.690570000000     0.864160000000     0.249490000000    -0.00332323 
S6       S      0.531740000000     0.163020000000     0.317780000000    -0.00198748 
S7       S      0.225950000000     0.126880000000     0.757970000000    -0.00188838 
S8       S      0.438580000000     0.769620000000     0.852360000000     0.094554   
S9       S      0.483340000000     0.998190000000     0.871720000000    -0.00323281 
S10      S      0.949510000000     0.757770000000     0.127120000000    -0.00456117 
S11      S      0.193600000000     0.872050000000     0.005620000000    -0.00329674 
S12      S      0.228620000000     0.621180000000     0.265230000000    -0.00198929 
S13      S      0.933870000000     0.255230000000     0.627870000000    -0.00246897 
S14      S      0.796100000000     0.182310000000     0.944380000000    -0.00235963 
S15      S      0.775970000000     0.560050000000     0.841060000000    -0.00351914 
S16      S      0.043890000000     0.558510000000     0.937780000000    -0.00204175 


