data_structure

_audit_creation_method RASPA-1.0
_audit_creation_date 2023-5-22
_audit_author_name 'Poobodin Mano'

_cell_length_a    25.3215
_cell_length_b    27.341
_cell_length_c    25.8
_cell_angle_alpha 90
_cell_angle_beta  90
_cell_angle_gamma 90
_cell_volume      17861.7

_symmetry_cell_setting          triclinic
_symmetry_space_group_name_Hall 'P 1'
_symmetry_space_group_name_H-M  'P 1'
_symmetry_Int_Tables_number     1

_symmetry_equiv_pos_as_xyz 'x,y,z'

loop_
_atom_site_label
_atom_site_type_symbol
_atom_site_fract_x
_atom_site_fract_y
_atom_site_fract_z
_atom_site_charge
C1       C      0.935060000000     0.401290000000     0.937380000000     0.350929   
C2       C      0.938850000000     0.279380000000     0.804570000000     0.345807   
C3       C      0.808320000000     0.281530000000     0.934320000000     0.345718   
C4       C      0.810560000000     0.404980000000     0.800100000000     0.347571   
C5       C      0.189690000000     0.527900000000     0.188850000000     0.347024   
C6       C      0.058560000000     0.653780000000     0.182860000000     0.347001   
C7       C      0.189160000000     0.645870000000     0.055660000000     0.349931   
C8       C      0.058970000000     0.519900000000     0.062140000000     0.34938    
C9       C      0.312180000000     0.768570000000     0.934470000000     0.349882   
C10      C      0.440010000000     0.901080000000     0.932790000000     0.346396   
C11      C      0.438740000000     0.772740000000     0.809230000000     0.346126   
C12      C      0.307320000000     0.900730000000     0.811670000000     0.346871   
C13      C      0.684610000000     0.159060000000     0.055230000000     0.34785    
C14      C      0.557990000000     0.152770000000     0.183400000000     0.347334   
C15      C      0.560590000000     0.026440000000     0.053340000000     0.347676   
C16      C      0.688500000000     0.027750000000     0.178050000000     0.347933   
C17      C      0.311230000000     0.404660000000     0.310920000000     0.347136   
C18      C      0.311710000000     0.274760000000     0.438720000000     0.346661   
C19      C      0.436080000000     0.271660000000     0.309900000000     0.347275   
C20      C      0.439070000000     0.402930000000     0.434000000000     0.348808   
C21      C      0.691050000000     0.528200000000     0.676060000000     0.347603   
C22      C      0.561820000000     0.655480000000     0.682050000000     0.346864   
C23      C      0.683830000000     0.660120000000     0.550170000000     0.348069   
C24      C      0.563170000000     0.526240000000     0.553450000000     0.347508   
C25      C      0.937510000000     0.909930000000     0.430310000000     0.348622   
C26      C      0.813290000000     0.907570000000     0.300410000000     0.347053   
C27      C      0.938730000000     0.779600000000     0.303640000000     0.347489   
C28      C      0.806930000000     0.783080000000     0.429290000000     0.34846    
C29      C      0.062040000000     0.153730000000     0.686870000000     0.346222   
C30      C      0.186720000000     0.024640000000     0.689430000000     0.347294   
C31      C      0.061320000000     0.029270000000     0.554490000000     0.348645   
C32      C      0.189490000000     0.151360000000     0.559990000000     0.347034   
C33      C      0.050110000000     0.958240000000     0.502600000000     0.0371699  
C34      C      0.979840000000     0.014030000000     0.511740000000     0.0316585  
C35      C      0.018550000000     0.928630000000     0.471330000000     0.0354802  
C36      C      0.947690000000     0.984360000000     0.480570000000     0.0546029  
C37      C      0.894660000000     0.001830000000     0.470550000000     0.0734512  
C38      C      0.779430000000     0.753390000000     0.511520000000     0.0378366  
C39      C      0.739530000000     0.722900000000     0.435640000000     0.0319598  
C40      C      0.748250000000     0.722230000000     0.541450000000     0.0361197  
C41      C      0.707850000000     0.691560000000     0.465410000000     0.0547415  
C42      C      0.671320000000     0.660560000000     0.437350000000     0.0747236  
C43      C      0.211200000000     0.186390000000     0.478410000000     0.0371967  
C44      C      0.260110000000     0.208100000000     0.552590000000     0.031805   
C45      C      0.242320000000     0.217530000000     0.448370000000     0.0352302  
C46      C      0.291450000000     0.239660000000     0.522780000000     0.0543785  
C47      C      0.332840000000     0.265820000000     0.549860000000     0.0742856  
C48      C      0.448220000000     0.463700000000     0.499210000000     0.038469   
C49      C      0.523840000000     0.433160000000     0.457000000000     0.0328649  
C50      C      0.479940000000     0.494440000000     0.529070000000     0.0360648  
C51      C      0.556070000000     0.463930000000     0.486830000000     0.0552403  
C52      C      0.612340000000     0.461390000000     0.477120000000     0.0760845  
C53      C      0.697870000000     0.965210000000     0.241270000000     0.0376713  
C54      C      0.773670000000     0.000600000000     0.203930000000     0.0319922  
C55      C      0.729740000000     0.935270000000     0.271860000000     0.0360082  
C56      C      0.806070000000     0.970600000000     0.234510000000     0.0549159  
C57      C      0.862550000000     0.976190000000     0.227880000000     0.0745242  
C58      C      0.491600000000     0.213250000000     0.194710000000     0.0371844  
C59      C      0.533050000000     0.178730000000     0.267800000000     0.0315431  
C60      C      0.461040000000     0.242780000000     0.227020000000     0.0352072  
C61      C      0.502570000000     0.208320000000     0.300610000000     0.0542561  
C62      C      0.511080000000     0.202630000000     0.355800000000     0.0736714  
C63      C      0.267980000000     0.985580000000     0.709320000000     0.0369133  
C64      C      0.193730000000     0.971910000000     0.762390000000     0.0312153  
C65      C      0.297880000000     0.954480000000     0.740500000000     0.0350003  
C66      C      0.223410000000     0.940270000000     0.793800000000     0.0541369  
C67      C      0.196370000000     0.918550000000     0.837580000000     0.07339    
C68      C      0.491130000000     0.711480000000     0.694260000000     0.0371938  
C69      C      0.542150000000     0.686500000000     0.765870000000     0.0318816  
C70      C      0.460470000000     0.740780000000     0.726740000000     0.0355254  
C71      C      0.511540000000     0.715820000000     0.798850000000     0.0547293  
C72      C      0.525940000000     0.715950000000     0.853180000000     0.0760803  
C73      C      0.477460000000     0.996850000000     0.024460000000     0.0372083  
C74      C      0.555720000000     0.962260000000     0.991380000000     0.0315283  
C75      C      0.447640000000     0.965110000000     0.993930000000     0.0350387  
C76      C      0.526060000000     0.930170000000     0.960520000000     0.0541736  
C77      C      0.555430000000     0.896190000000     0.928510000000     0.0746313  
C78      C      0.994470000000     0.710170000000     0.294870000000     0.0372901  
C79      C      0.971960000000     0.756460000000     0.221100000000     0.0316207  
C80      C      0.024350000000     0.678730000000     0.263980000000     0.035193   
C81      C      0.001940000000     0.725100000000     0.189730000000     0.0544789  
C82      C      0.003320000000     0.736230000000     0.134860000000     0.0742509  
C83      C      0.283020000000     0.740420000000     0.016680000000     0.0388642  
C84      C      0.251490000000     0.702490000000     0.940770000000     0.033234   
C85      C      0.251860000000     0.709340000000     0.046660000000     0.0374384  
C86      C      0.220120000000     0.670920000000     0.970630000000     0.055621   
C87      C      0.188660000000     0.635400000000     0.942680000000     0.0755044  
C88      C      0.227850000000     0.435130000000     0.283700000000     0.0373395  
C89      C      0.305830000000     0.468460000000     0.248610000000     0.031734   
C90      C      0.197790000000     0.466460000000     0.252890000000     0.0359984  
C91      C      0.275940000000     0.500140000000     0.217480000000     0.0546485  
C92      C      0.305090000000     0.533230000000     0.184270000000     0.0741816  
C93      C      0.988240000000     0.168740000000     0.741510000000     0.0372866  
C94      C      0.045770000000     0.233350000000     0.720090000000     0.0313913  
C95      C      0.957530000000     0.200810000000     0.770850000000     0.0351104  
C96      C      0.015210000000     0.265860000000     0.749550000000     0.0542865  
C97      C      0.032940000000     0.316200000000     0.751420000000     0.074276   
C98      C      0.710510000000     0.190350000000     0.973200000000     0.0370555  
C99      C      0.750010000000     0.221180000000     0.049130000000     0.0316113  
C100     C      0.741880000000     0.221340000000     0.943280000000     0.0353127  
C101     C      0.781790000000     0.252460000000     0.019360000000     0.0541211  
C102     C      0.817720000000     0.284040000000     0.047420000000     0.0732363  
C103     C      0.728100000000     0.438830000000     0.774870000000     0.03734    
C104     C      0.805550000000     0.461830000000     0.730540000000     0.031724   
C105     C      0.698530000000     0.469810000000     0.743250000000     0.0357203  
C106     C      0.776160000000     0.493320000000     0.698710000000     0.0548847  
C107     C      0.805080000000     0.519960000000     0.659350000000     0.0749899  
C108     C      0.947270000000     0.473500000000     0.987170000000     0.0392353  
C109     C      0.014800000000     0.414320000000     0.983910000000     0.0337585  
C110     C      0.978790000000     0.502860000000     0.018760000000     0.0367861  
C111     C      0.046900000000     0.443690000000     0.015440000000     0.0556658  
C112     C      0.098230000000     0.424190000000     0.029080000000     0.0751433  
Cd1      Cd     0.872510000000     0.342420000000     0.867620000000     0.515526   
Cd2      Cd     0.123010000000     0.586910000000     0.122630000000     0.517776   
Cd3      Cd     0.373570000000     0.836000000000     0.872450000000     0.516766   
Cd4      Cd     0.622500000000     0.091950000000     0.117000000000     0.514889   
Cd5      Cd     0.373940000000     0.338260000000     0.372740000000     0.516463   
Cd6      Cd     0.624900000000     0.593330000000     0.615710000000     0.517067   
Cd7      Cd     0.874990000000     0.844270000000     0.366830000000     0.516207   
Cd8      Cd     0.124750000000     0.088420000000     0.623420000000     0.514105   
H1       H      0.036050000000     0.895240000000     0.456490000000     0.0534817  
H2       H      0.090240000000     0.946440000000     0.510300000000     0.0521295  
H3       H      0.963450000000     0.047770000000     0.527120000000     0.0565477  
H4       H      0.753510000000     0.723570000000     0.583150000000     0.0547004  
H5       H      0.807140000000     0.777120000000     0.531400000000     0.0531654  
H6       H      0.735210000000     0.722360000000     0.393750000000     0.056711   
H7       H      0.233400000000     0.219750000000     0.407320000000     0.0536211  
H8       H      0.179970000000     0.166130000000     0.459270000000     0.0522092  
H9       H      0.268140000000     0.205080000000     0.593830000000     0.0570546  
H10      H      0.460300000000     0.517880000000     0.556970000000     0.054077   
H11      H      0.405880000000     0.464820000000     0.505440000000     0.0534845  
H12      H      0.542360000000     0.409250000000     0.428690000000     0.0579573  
H13      H      0.710040000000     0.910140000000     0.298030000000     0.0540819  
H14      H      0.655390000000     0.961820000000     0.245290000000     0.0528     
H15      H      0.792200000000     0.026180000000     0.177330000000     0.0568348  
H16      H      0.433230000000     0.267450000000     0.208620000000     0.0538104  
H17      H      0.485930000000     0.216440000000     0.153180000000     0.0525759  
H18      H      0.561240000000     0.153600000000     0.285100000000     0.0566983  
H19      H      0.338900000000     0.949010000000     0.729850000000     0.0535163  
H20      H      0.287240000000     0.002590000000     0.676390000000     0.0525429  
H21      H      0.152520000000     0.978220000000     0.772050000000     0.0563818  
H22      H      0.428670000000     0.761410000000     0.709000000000     0.053519   
H23      H      0.481630000000     0.710900000000     0.653280000000     0.052506   
H24      H      0.574350000000     0.665440000000     0.782500000000     0.0569447  
H25      H      0.405000000000     0.967990000000     0.996590000000     0.0538209  
H26      H      0.456580000000     0.022530000000     0.049090000000     0.0524017  
H27      H      0.598530000000     0.960250000000     0.989630000000     0.0564817  
H28      H      0.044200000000     0.648600000000     0.283160000000     0.0535314  
H29      H      0.992630000000     0.702850000000     0.336140000000     0.052639   
H30      H      0.951580000000     0.786980000000     0.203000000000     0.0577004  
H31      H      0.253680000000     0.713860000000     0.088390000000     0.0553326  
H32      H      0.307180000000     0.767280000000     0.036560000000     0.0538816  
H33      H      0.250570000000     0.698930000000     0.898830000000     0.0572009  
H34      H      0.155180000000     0.463920000000     0.256240000000     0.0542208  
H35      H      0.207180000000     0.410100000000     0.309230000000     0.052848   
H36      H      0.348630000000     0.470130000000     0.246140000000     0.0567296  
H37      H      0.923050000000     0.185790000000     0.790050000000     0.0534447  
H38      H      0.976080000000     0.130760000000     0.739410000000     0.0529822  
H39      H      0.080570000000     0.247320000000     0.700380000000     0.0564633  
H40      H      0.736880000000     0.219710000000     0.901570000000     0.0539113  
H41      H      0.683000000000     0.166450000000     0.953290000000     0.0524335  
H42      H      0.754050000000     0.221940000000     0.091040000000     0.056729   
H43      H      0.656320000000     0.471440000000     0.750180000000     0.053995   
H44      H      0.707450000000     0.418090000000     0.804410000000     0.0527431  
H45      H      0.847930000000     0.459310000000     0.724530000000     0.0578059  
H46      H      0.962430000000     0.537570000000     0.031260000000     0.0552867  
H47      H      0.908280000000     0.486780000000     0.976950000000     0.0536982  
H48      H      0.030070000000     0.379290000000     0.970850000000     0.0579601  
N1       N      0.030630000000     0.000710000000     0.522930000000    -0.160212   
N2       N      0.967220000000     0.941090000000     0.460490000000    -0.160971   
N3       N      0.845080000000     0.018460000000     0.461290000000    -0.0770526  
N4       N      0.775330000000     0.753380000000     0.458720000000    -0.160016   
N5       N      0.712660000000     0.690970000000     0.518810000000    -0.160492   
N6       N      0.637210000000     0.631610000000     0.410830000000    -0.0760452  
N7       N      0.220140000000     0.181760000000     0.530400000000    -0.159789   
N8       N      0.282380000000     0.244400000000     0.470160000000    -0.160596   
N9       N      0.371530000000     0.290190000000     0.575480000000    -0.0766477  
N10      N      0.470210000000     0.433180000000     0.463260000000    -0.159562   
N11      N      0.533810000000     0.494880000000     0.523180000000    -0.160325   
N12      N      0.664990000000     0.458830000000     0.467760000000    -0.0744451  
N13      N      0.719870000000     0.997900000000     0.207540000000    -0.159881   
N14      N      0.783790000000     0.937760000000     0.268930000000    -0.160222   
N15      N      0.915390000000     0.981630000000     0.221430000000    -0.0763451  
N16      N      0.527650000000     0.181460000000     0.215140000000    -0.160077   
N17      N      0.466440000000     0.240840000000     0.279920000000    -0.160847   
N18      N      0.519290000000     0.197080000000     0.407420000000    -0.0760391  
N19      N      0.216020000000     0.994210000000     0.720290000000    -0.160226   
N20      N      0.275980000000     0.931490000000     0.782610000000    -0.160912   
N21      N      0.170780000000     0.898340000000     0.878510000000    -0.0763699  
N22      N      0.531830000000     0.684410000000     0.713880000000    -0.1599     
N23      N      0.470250000000     0.743150000000     0.779010000000    -0.160146   
N24      N      0.539730000000     0.715950000000     0.903990000000    -0.0744782  
N25      N      0.531370000000     0.995340000000     0.023170000000    -0.160133   
N26      N      0.471480000000     0.931670000000     0.961890000000    -0.160653   
N27      N      0.583140000000     0.864390000000     0.898680000000    -0.0755384  
N28      N      0.968330000000     0.748890000000     0.273380000000    -0.15996    
N29      N      0.028360000000     0.685860000000     0.211460000000    -0.160856   
N30      N      0.004430000000     0.746910000000     0.083520000000    -0.0755178  
N31      N      0.282470000000     0.737200000000     0.963850000000    -0.159748   
N32      N      0.220030000000     0.674750000000     0.024080000000    -0.160155   
N33      N      0.159300000000     0.602220000000     0.916250000000    -0.075238   
N34      N      0.281740000000     0.435980000000     0.281270000000    -0.159916   
N35      N      0.221370000000     0.498790000000     0.219410000000    -0.160329   
N36      N      0.332640000000     0.564130000000     0.153260000000    -0.0768049  
N37      N      0.032180000000     0.185080000000     0.716130000000    -0.159889   
N38      N      0.970600000000     0.249370000000     0.775070000000    -0.160663   
N39      N      0.049840000000     0.363260000000     0.753000000000    -0.0755238  
N40      N      0.714800000000     0.190160000000     0.025980000000    -0.160073   
N41      N      0.777810000000     0.252280000000     0.965880000000    -0.160476   
N42      N      0.851260000000     0.313550000000     0.073950000000    -0.0776052  
N43      N      0.781510000000     0.435020000000     0.768580000000    -0.159962   
N44      N      0.722160000000     0.497470000000     0.705380000000    -0.160581   
N45      N      0.832430000000     0.544760000000     0.622560000000    -0.0757154  
N46      N      0.965490000000     0.429530000000     0.969490000000    -0.159469   
N47      N      0.028840000000     0.488620000000     0.032520000000    -0.16042    
N48      N      0.146220000000     0.405650000000     0.041750000000    -0.0762424  
O1       O      0.948030000000     0.324470000000     0.810590000000    -0.232591   
O2       O      0.789770000000     0.380720000000     0.836560000000    -0.241659   
O3       O      0.950750000000     0.360160000000     0.920750000000    -0.237666   
O4       O      0.843280000000     0.310220000000     0.951830000000    -0.236996   
O5       O      0.803370000000     0.281210000000     0.885380000000    -0.235598   
O6       O      0.889870000000     0.414960000000     0.921950000000    -0.240621   
O7       O      0.898240000000     0.263510000000     0.827810000000    -0.241254   
O8       O      0.859950000000     0.400030000000     0.794850000000    -0.240514   
O9       O      0.082480000000     0.618020000000     0.203510000000    -0.241091   
O10      O      0.040880000000     0.559950000000     0.079340000000    -0.23972    
O11      O      0.139680000000     0.525800000000     0.191060000000    -0.237558   
O12      O      0.188920000000     0.650920000000     0.104510000000    -0.237579   
O13      O      0.158760000000     0.613010000000     0.038250000000    -0.234619   
O14      O      0.208170000000     0.557940000000     0.156220000000    -0.234433   
O15      O      0.064630000000     0.657880000000     0.134420000000    -0.235487   
O16      O      0.106700000000     0.511320000000     0.073330000000    -0.23507    
O17      O      0.458620000000     0.869750000000     0.901720000000    -0.233651   
O18      O      0.355970000000     0.894820000000     0.801930000000    -0.240623   
O19      O      0.341420000000     0.800940000000     0.954710000000    -0.239936   
O20      O      0.444310000000     0.776190000000     0.857860000000    -0.231928   
O21      O      0.402060000000     0.798610000000     0.789980000000    -0.238418   
O22      O      0.311700000000     0.767330000000     0.885400000000    -0.241246   
O23      O      0.390060000000     0.902360000000     0.935510000000    -0.24029    
O24      O      0.289800000000     0.876300000000     0.849590000000    -0.236616   
O25      O      0.591530000000     0.122820000000     0.201250000000    -0.241056   
O26      O      0.638550000000     0.026280000000     0.180620000000    -0.240341   
O27      O      0.687800000000     0.157810000000     0.104210000000    -0.240548   
O28      O      0.539270000000     0.057480000000     0.083200000000    -0.241352   
O29      O      0.610620000000     0.025890000000     0.053110000000    -0.24147    
O30      O      0.652200000000     0.129420000000     0.034940000000    -0.241999   
O31      O      0.554370000000     0.154620000000     0.134450000000    -0.240802   
O32      O      0.707690000000     0.058810000000     0.146840000000    -0.240073   
O33      O      0.303810000000     0.277490000000     0.390260000000    -0.239897   
O34      O      0.458360000000     0.374140000000     0.400500000000    -0.238553   
O35      O      0.290200000000     0.374020000000     0.341470000000    -0.240119   
O36      O      0.402960000000     0.300990000000     0.290150000000    -0.241486   
O37      O      0.439650000000     0.273270000000     0.358750000000    -0.235407   
O38      O      0.361230000000     0.404360000000     0.309210000000    -0.241396   
O39      O      0.348240000000     0.301810000000     0.455930000000    -0.234701   
O40      O      0.389270000000     0.401910000000     0.438880000000    -0.239177   
O41      O      0.599740000000     0.629970000000     0.699190000000    -0.240962   
O42      O      0.612970000000     0.528730000000     0.550710000000    -0.233605   
O43      O      0.641360000000     0.530010000000     0.681720000000    -0.240674   
O44      O      0.689910000000     0.659130000000     0.598930000000    -0.23947    
O45      O      0.650040000000     0.630440000000     0.532530000000    -0.235002   
O46      O      0.709770000000     0.556850000000     0.642180000000    -0.233628   
O47      O      0.553220000000     0.652390000000     0.633770000000    -0.240138   
O48      O      0.541890000000     0.554940000000     0.585940000000    -0.239258   
O49      O      0.863280000000     0.907580000000     0.300290000000    -0.23211    
O50      O      0.805030000000     0.782940000000     0.380210000000    -0.240089   
O51      O      0.889100000000     0.917150000000     0.420980000000    -0.236632   
O52      O      0.913670000000     0.815460000000     0.284740000000    -0.239568   
O53      O      0.934520000000     0.773800000000     0.352170000000    -0.241178   
O54      O      0.956890000000     0.871600000000     0.410240000000    -0.24134    
O55      O      0.791920000000     0.877790000000     0.331770000000    -0.238468   
O56      O      0.840260000000     0.811940000000     0.449430000000    -0.241998   
O57      O      0.138840000000     0.034400000000     0.699090000000    -0.242669   
O58      O      0.151380000000     0.127170000000     0.540970000000    -0.242159   
O59      O      0.102550000000     0.167990000000     0.662410000000    -0.241968   
O60      O      0.107940000000     0.017210000000     0.566950000000    -0.243529   
O61      O      0.044540000000     0.069050000000     0.573540000000    -0.240646   
O62      O      0.050700000000     0.108810000000     0.682280000000    -0.237099   
O63      O      0.205790000000     0.044600000000     0.649330000000    -0.241132   
O64      O      0.197400000000     0.145960000000     0.608160000000    -0.235963   


