data_structure

_audit_creation_method RASPA-1.0
_audit_creation_date 2023-5-22
_audit_author_name 'Poobodin Mano'

_cell_length_a    27.3948
_cell_length_b    28.2406
_cell_length_c    22.4344
_cell_angle_alpha 90
_cell_angle_beta  90
_cell_angle_gamma 90
_cell_volume      17356.3

_symmetry_cell_setting          triclinic
_symmetry_space_group_name_Hall 'P 1'
_symmetry_space_group_name_H-M  'P 1'
_symmetry_Int_Tables_number     1

_symmetry_equiv_pos_as_xyz 'x,y,z'

loop_
_atom_site_label
_atom_site_type_symbol
_atom_site_fract_x
_atom_site_fract_y
_atom_site_fract_z
_atom_site_charge
C1       C      0.906890000000     0.389270000000     0.012690000000     0.344252   
C2       C      0.906520000000     0.263640000000     0.882540000000     0.344178   
C3       C      0.777120000000     0.264070000000     0.010430000000     0.343882   
C4       C      0.778860000000     0.390360000000     0.882600000000     0.344044   
C5       C      0.028560000000     0.511350000000     0.136010000000     0.355717   
C6       C      0.154690000000     0.641650000000     0.132900000000     0.344642   
C7       C      0.027830000000     0.641780000000     0.259830000000     0.355081   
C8       C      0.155710000000     0.513500000000     0.262060000000     0.344204   
C9       C      0.277020000000     0.763220000000     0.009740000000     0.355446   
C10      C      0.279560000000     0.891560000000     0.884810000000     0.344983   
C11      C      0.409010000000     0.887920000000     0.011300000000     0.344074   
C12      C      0.406300000000     0.762880000000     0.882440000000     0.343529   
C13      C      0.654450000000     0.141860000000     0.132020000000     0.354756   
C14      C      0.531790000000     0.010220000000     0.132580000000     0.354803   
C15      C      0.656370000000     0.012760000000     0.262270000000     0.342422   
C16      C      0.530600000000     0.140920000000     0.262220000000     0.354713   
C17      C      0.278790000000     0.392120000000     0.384400000000     0.355576   
C18      C      0.408020000000     0.263780000000     0.383000000000     0.343944   
C19      C      0.406850000000     0.393210000000     0.508000000000     0.354709   
C20      C      0.280650000000     0.262000000000     0.508660000000     0.356441   
C21      C      0.528050000000     0.640990000000     0.758870000000     0.355148   
C22      C      0.657630000000     0.512720000000     0.759020000000     0.355519   
C23      C      0.528520000000     0.515150000000     0.631510000000     0.344638   
C24      C      0.659530000000     0.639740000000     0.634300000000     0.344762   
C25      C      0.779060000000     0.892220000000     0.386520000000     0.355293   
C26      C      0.906280000000     0.763630000000     0.383710000000     0.343454   
C27      C      0.907350000000     0.892980000000     0.511210000000     0.343462   
C28      C      0.782360000000     0.762540000000     0.513920000000     0.356443   
C29      C      0.028740000000     0.141970000000     0.759340000000     0.355699   
C30      C      0.158370000000     0.015440000000     0.763600000000     0.355969   
C31      C      0.030420000000     0.015110000000     0.632330000000     0.355307   
C32      C      0.159290000000     0.140210000000     0.632830000000     0.344292   
C33      C      0.931590000000     0.931940000000     0.600330000000     0.0285378  
C34      C      0.974920000000     0.945720000000     0.511230000000    -0.0285685  
C35      C      0.962800000000     0.962760000000     0.630540000000     0.0413554  
C36      C      0.006550000000     0.976430000000     0.541350000000     0.207368   
C37      C      0.685710000000     0.676810000000     0.544790000000     0.0295141  
C38      C      0.726420000000     0.693360000000     0.634970000000    -0.0278457  
C39      C      0.716790000000     0.707850000000     0.514800000000     0.0424219  
C40      C      0.757600000000     0.724740000000     0.605170000000     0.208349   
C41      C      0.225810000000     0.194240000000     0.630310000000     0.0299669  
C42      C      0.183890000000     0.175610000000     0.541620000000    -0.026762   
C43      C      0.256250000000     0.224880000000     0.598650000000     0.0430029  
C44      C      0.214480000000     0.206040000000     0.509540000000     0.208992   
C45      C      0.462920000000     0.460090000000     0.629550000000     0.0288163  
C46      C      0.502830000000     0.480660000000     0.540150000000    -0.027844   
C47      C      0.432400000000     0.429430000000     0.598060000000     0.0413173  
C48      C      0.472130000000     0.450190000000     0.508250000000     0.20699    
C49      C      0.723660000000     0.959700000000     0.265050000000     0.0284618  
C50      C      0.680090000000     0.976230000000     0.353210000000    -0.0283252  
C51      C      0.754480000000     0.929450000000     0.296720000000     0.0415655  
C52      C      0.711070000000     0.946140000000     0.385330000000     0.207812   
C53      C      0.433770000000     0.226510000000     0.293350000000     0.0288926  
C54      C      0.474530000000     0.209770000000     0.383430000000    -0.0279134  
C55      C      0.464840000000     0.195480000000     0.263250000000     0.0414012  
C56      C      0.506030000000     0.178850000000     0.353430000000     0.20762    
C57      C      0.241440000000     0.917370000000     0.795400000000     0.0295328  
C58      C      0.227390000000     0.958830000000     0.884940000000    -0.0274705  
C59      C      0.210840000000     0.948740000000     0.765200000000     0.0417067  
C60      C      0.196480000000     0.990330000000     0.854940000000     0.207915   
C61      C      0.459790000000     0.696630000000     0.880120000000     0.0278326  
C62      C      0.442900000000     0.738350000000     0.791500000000    -0.0285365  
C63      C      0.490330000000     0.666000000000     0.848610000000     0.041005   
C64      C      0.473300000000     0.707600000000     0.759580000000     0.206889   
C65      C      0.432930000000     0.927130000000     0.100370000000     0.0290125  
C66      C      0.478490000000     0.938280000000     0.012370000000    -0.0279544  
C67      C      0.464070000000     0.958000000000     0.130630000000     0.0415708  
C68      C      0.510030000000     0.969060000000     0.042540000000     0.207504   
C69      C      0.972050000000     0.708800000000     0.381440000000     0.0286945  
C70      C      0.930340000000     0.727520000000     0.292630000000    -0.0282624  
C71      C      0.002540000000     0.678170000000     0.349880000000     0.0415143  
C72      C      0.960680000000     0.696690000000     0.260740000000     0.20713    
C73      C      0.221850000000     0.694870000000     0.130580000000     0.0285569  
C74      C      0.177710000000     0.679450000000     0.042520000000    -0.0278528  
C75      C      0.252580000000     0.725380000000     0.099180000000     0.0413049  
C76      C      0.208520000000     0.709900000000     0.010700000000     0.207099   
C77      C      0.220350000000     0.457390000000     0.263150000000     0.0289841  
C78      C      0.182490000000     0.479500000000     0.353280000000    -0.0273834  
C79      C      0.251300000000     0.426950000000     0.294340000000     0.0419385  
C80      C      0.213590000000     0.449200000000     0.384880000000     0.207707   
C81      C      0.958350000000     0.196180000000     0.879780000000     0.0289049  
C82      C      0.945230000000     0.240590000000     0.792280000000    -0.0276764  
C83      C      0.989010000000     0.165610000000     0.848350000000     0.0423252  
C84      C      0.975760000000     0.209910000000     0.760420000000     0.207842   
C85      C      0.754100000000     0.223830000000     0.099080000000     0.0286818  
C86      C      0.707230000000     0.214210000000     0.011820000000    -0.0282126  
C87      C      0.722950000000     0.193060000000     0.129440000000     0.0413639  
C88      C      0.675700000000     0.183480000000     0.042100000000     0.20722    
C89      C      0.725610000000     0.456800000000     0.880300000000     0.0283931  
C90      C      0.742020000000     0.414780000000     0.791780000000    -0.0279769  
C91      C      0.695160000000     0.487520000000     0.848800000000     0.0414852  
C92      C      0.711770000000     0.445650000000     0.759840000000     0.207535   
C93      C      0.975180000000     0.441110000000     0.015690000000     0.0286641  
C94      C      0.929420000000     0.427470000000     0.102980000000    -0.028072   
C95      C      0.005640000000     0.471870000000     0.047090000000     0.0417296  
C96      C      0.959740000000     0.458430000000     0.134700000000     0.207346   
Cd1      Cd     0.842540000000     0.326860000000     0.947290000000     0.51449    
Cd2      Cd     0.092070000000     0.577120000000     0.197550000000     0.515548   
Cd3      Cd     0.342860000000     0.826370000000     0.947400000000     0.514841   
Cd4      Cd     0.593070000000     0.076300000000     0.197120000000     0.515345   
Cd5      Cd     0.343590000000     0.327600000000     0.446000000000     0.516351   
Cd6      Cd     0.593320000000     0.577220000000     0.696540000000     0.515246   
Cd7      Cd     0.843820000000     0.827940000000     0.448810000000     0.515416   
Cd8      Cd     0.094350000000     0.078130000000     0.697690000000     0.515628   
H1       H      0.956340000000     0.968300000000     0.677720000000     0.0503189  
H2       H      0.902570000000     0.915080000000     0.625440000000     0.054862   
H3       H      0.980930000000     0.939930000000     0.463990000000     0.0773405  
H4       H      0.071310000000     0.975580000000     0.511900000000     0.16538    
H5       H      0.711400000000     0.712230000000     0.467230000000     0.0513051  
H6       H      0.657800000000     0.658750000000     0.519140000000     0.0550898  
H7       H      0.731430000000     0.688570000000     0.682560000000     0.0771322  
H8       H      0.777320000000     0.777120000000     0.652020000000     0.167276   
H9       H      0.284250000000     0.243600000000     0.623410000000     0.0526039  
H10      H      0.231640000000     0.190640000000     0.677910000000     0.0554651  
H11      H      0.155650000000     0.156780000000     0.517370000000     0.0812983  
H12      H      0.227550000000     0.185560000000     0.430790000000     0.165319   
H13      H      0.405200000000     0.409930000000     0.623190000000     0.0517878  
H14      H      0.457930000000     0.462910000000     0.677370000000     0.053303   
H15      H      0.530290000000     0.500280000000     0.515570000000     0.0782337  
H16      H      0.457200000000     0.471540000000     0.430370000000     0.163134   
H17      H      0.783290000000     0.911760000000     0.272160000000     0.0518356  
H18      H      0.730070000000     0.964050000000     0.217660000000     0.0537382  
H19      H      0.651050000000     0.994080000000     0.377210000000     0.0801434  
H20      H      0.722450000000     0.965930000000     0.464750000000     0.165428   
H21      H      0.459350000000     0.191050000000     0.215700000000     0.0509767  
H22      H      0.405820000000     0.244610000000     0.267800000000     0.0547167  
H23      H      0.479550000000     0.214430000000     0.431040000000     0.0782582  
H24      H      0.570100000000     0.177410000000     0.385010000000     0.165731   
H25      H      0.205600000000     0.943150000000     0.717800000000     0.0502095  
H26      H      0.258340000000     0.889060000000     0.770080000000     0.0547825  
H27      H      0.233040000000     0.964050000000     0.932360000000     0.0778951  
H28      H      0.143980000000     0.012800000000     0.901960000000     0.166186   
H29      H      0.508290000000     0.638010000000     0.873410000000     0.0507359  
H30      H      0.455480000000     0.690900000000     0.927630000000     0.052406   
H31      H      0.424800000000     0.766560000000     0.767250000000     0.0781298  
H32      H      0.452310000000     0.696100000000     0.680490000000     0.163901   
H33      H      0.456650000000     0.964660000000     0.177360000000     0.0513526  
H34      H      0.403000000000     0.911380000000     0.125010000000     0.0544371  
H35      H      0.485420000000     0.931430000000     0.965550000000     0.078169   
H36      H      0.575490000000     0.966400000000     0.015710000000     0.165731   
H37      H      0.030570000000     0.659560000000     0.374710000000     0.0519056  
H38      H      0.977860000000     0.712420000000     0.429040000000     0.0541897  
H39      H      0.902200000000     0.746440000000     0.268320000000     0.0777896  
H40      H      0.929230000000     0.666060000000     0.196230000000     0.163561   
H41      H      0.281600000000     0.742700000000     0.123800000000     0.0509936  
H42      H      0.228550000000     0.689950000000     0.177820000000     0.0529287  
H43      H      0.148480000000     0.661940000000     0.018460000000     0.0783232  
H44      H      0.219290000000     0.691040000000     0.930790000000     0.164071   
H45      H      0.277820000000     0.406910000000     0.268800000000     0.0517563  
H46      H      0.224400000000     0.459540000000     0.215140000000     0.0535135  
H47      H      0.155720000000     0.499700000000     0.378260000000     0.0787481  
H48      H      0.230220000000     0.471480000000     0.461830000000     0.163254   
H49      H      0.005470000000     0.136550000000     0.872730000000     0.0521596  
H50      H      0.952460000000     0.189330000000     0.926790000000     0.0542473  
H51      H      0.928600000000     0.269870000000     0.768460000000     0.0787964  
H52      H      0.956880000000     0.201010000000     0.680020000000     0.166074   
H53      H      0.730910000000     0.185820000000     0.175910000000     0.0506743  
H54      H      0.784540000000     0.238960000000     0.123410000000     0.054872   
H55      H      0.699770000000     0.221680000000     0.965270000000     0.0778333  
H56      H      0.609940000000     0.187190000000     0.016590000000     0.165759   
H57      H      0.677430000000     0.515670000000     0.873550000000     0.0510411  
H58      H      0.730070000000     0.462600000000     0.927780000000     0.0528109  
H59      H      0.759890000000     0.386400000000     0.767550000000     0.0786166  
H60      H      0.732660000000     0.456760000000     0.680630000000     0.165724   
H61      H      0.035300000000     0.488470000000     0.022820000000     0.0518149  
H62      H      0.982600000000     0.435410000000     0.968750000000     0.054081   
H63      H      0.899640000000     0.410580000000     0.126730000000     0.0779661  
H64      H      0.927100000000     0.492590000000     0.195400000000     0.163673   
N1       N      0.937750000000     0.923460000000     0.540790000000    -0.148949   
N2       N      0.000270000000     0.985040000000     0.601310000000    -0.188259   
N3       N      0.690480000000     0.669760000000     0.604810000000    -0.148674   
N4       N      0.752670000000     0.731930000000     0.544740000000    -0.187942   
N5       N      0.189590000000     0.169850000000     0.601760000000    -0.147902   
N6       N      0.250580000000     0.231070000000     0.538420000000    -0.187626   
N7       N      0.498180000000     0.485480000000     0.600570000000    -0.148928   
N8       N      0.437010000000     0.424190000000     0.537560000000    -0.188076   
N9       N      0.686540000000     0.982990000000     0.293340000000    -0.148532   
N10      N      0.748280000000     0.922490000000     0.356740000000    -0.18816    
N11      N      0.438620000000     0.233500000000     0.353370000000    -0.148694   
N12      N      0.500870000000     0.171510000000     0.293070000000    -0.188009   
N13      N      0.249610000000     0.922450000000     0.855180000000    -0.148575   
N14      N      0.188340000000     0.985240000000     0.794690000000    -0.188166   
N15      N      0.436210000000     0.732760000000     0.851520000000    -0.149127   
N16      N      0.497330000000     0.671420000000     0.788480000000    -0.188304   
N17      N      0.440040000000     0.917560000000     0.041260000000    -0.148919   
N18      N      0.502400000000     0.979260000000     0.101860000000    -0.187718   
N19      N      0.936070000000     0.733430000000     0.352750000000    -0.148849   
N20      N      0.997100000000     0.672090000000     0.289600000000    -0.187981   
N21      N      0.184570000000     0.671910000000     0.102170000000    -0.149019   
N22      N      0.246070000000     0.733020000000     0.039350000000    -0.188243   
N23      N      0.186020000000     0.483570000000     0.292670000000    -0.14878    
N24      N      0.247990000000     0.422640000000     0.355080000000    -0.187742   
N25      N      0.936590000000     0.233620000000     0.851700000000    -0.148753   
N26      N      0.997940000000     0.172400000000     0.788830000000    -0.187835   
N27      N      0.746280000000     0.234200000000     0.040320000000    -0.148974   
N28      N      0.683930000000     0.172620000000     0.101110000000    -0.187916   
N29      N      0.748930000000     0.420490000000     0.851740000000    -0.148994   
N30      N      0.688060000000     0.482050000000     0.788690000000    -0.188066   
N31      N      0.937080000000     0.419090000000     0.043650000000    -0.149017   
N32      N      0.998070000000     0.480660000000     0.106490000000    -0.188038   
O1       O      0.897700000000     0.258150000000     0.937540000000    -0.243364   
O2       O      0.800860000000     0.356370000000     0.857370000000    -0.235057   
O3       O      0.912980000000     0.380730000000     0.957760000000    -0.244073   
O4       O      0.770980000000     0.274290000000     0.955950000000    -0.242931   
O5       O      0.813630000000     0.283060000000     0.035530000000    -0.236226   
O6       O      0.871000000000     0.368750000000     0.037180000000    -0.236332   
O7       O      0.885760000000     0.298550000000     0.857760000000    -0.234966   
O8       O      0.786320000000     0.394810000000     0.938060000000    -0.244761   
O9       O      0.120210000000     0.619430000000     0.107740000000    -0.235356   
O10      O      0.123680000000     0.538380000000     0.288140000000    -0.234346   
O11      O      0.063210000000     0.532560000000     0.109770000000    -0.239807   
O12      O      0.025040000000     0.635000000000     0.204150000000    -0.234323   
O13      O      0.060890000000     0.618620000000     0.286520000000    -0.239004   
O14      O      0.023850000000     0.520560000000     0.190930000000    -0.234555   
O15      O      0.159990000000     0.634000000000     0.188160000000    -0.244791   
O16      O      0.158080000000     0.518110000000     0.205960000000    -0.243738   
O17      O      0.287640000000     0.895120000000     0.940230000000    -0.241828   
O18      O      0.383920000000     0.796620000000     0.857160000000    -0.235226   
O19      O      0.272650000000     0.772150000000     0.954710000000    -0.235478   
O20      O      0.373050000000     0.868180000000     0.036690000000    -0.236385   
O21      O      0.414310000000     0.878850000000     0.956370000000    -0.242709   
O22      O      0.312040000000     0.783920000000     0.035890000000    -0.240658   
O23      O      0.300840000000     0.857660000000     0.858480000000    -0.234967   
O24      O      0.399300000000     0.758680000000     0.938020000000    -0.245724   
O25      O      0.567360000000     0.031390000000     0.108400000000    -0.224829   
O26      O      0.564470000000     0.117750000000     0.287160000000    -0.227247   
O27      O      0.618350000000     0.121260000000     0.108210000000    -0.224752   
O28      O      0.661570000000     0.020070000000     0.206910000000    -0.24259    
O29      O      0.621660000000     0.034810000000     0.287220000000    -0.232692   
O30      O      0.661940000000     0.131970000000     0.186360000000    -0.247356   
O31      O      0.524730000000     0.019770000000     0.187100000000    -0.245318   
O32      O      0.525750000000     0.133960000000     0.206730000000    -0.245948   
O33      O      0.374660000000     0.286630000000     0.356460000000    -0.235498   
O34      O      0.313760000000     0.285230000000     0.535160000000    -0.238408   
O35      O      0.310680000000     0.367900000000     0.357050000000    -0.238738   
O36      O      0.409510000000     0.386560000000     0.452280000000    -0.235369   
O37      O      0.374600000000     0.369180000000     0.534970000000    -0.239081   
O38      O      0.277200000000     0.386160000000     0.440300000000    -0.23303    
O39      O      0.411370000000     0.270640000000     0.438650000000    -0.241959   
O40      O      0.277030000000     0.269420000000     0.453190000000    -0.232343   
O41      O      0.635690000000     0.546170000000     0.785510000000    -0.239903   
O42      O      0.625790000000     0.617550000000     0.607630000000    -0.234793   
O43      O      0.550100000000     0.607610000000     0.785340000000    -0.240524   
O44      O      0.525200000000     0.520470000000     0.687460000000    -0.244331   
O45      O      0.561780000000     0.538780000000     0.605940000000    -0.23425    
O46      O      0.536420000000     0.644480000000     0.703560000000    -0.235488   
O47      O      0.649530000000     0.509470000000     0.703620000000    -0.234343   
O48      O      0.662650000000     0.632750000000     0.689960000000    -0.243162   
O49      O      0.872620000000     0.786950000000     0.358420000000    -0.235721   
O50      O      0.816190000000     0.785780000000     0.538860000000    -0.226886   
O51      O      0.813250000000     0.870390000000     0.360200000000    -0.239817   
O52      O      0.872940000000     0.871390000000     0.537360000000    -0.235785   
O53      O      0.912100000000     0.884440000000     0.456080000000    -0.243246   
O54      O      0.775160000000     0.884100000000     0.441800000000    -0.234509   
O55      O      0.910790000000     0.770060000000     0.439330000000    -0.242376   
O56      O      0.777390000000     0.769570000000     0.458450000000    -0.245844   
O57      O      0.136780000000     0.049990000000     0.788020000000    -0.227157   
O58      O      0.125130000000     0.117600000000     0.607580000000    -0.230402   
O59      O      0.049120000000     0.107420000000     0.785420000000    -0.238652   
O60      O      0.065640000000     0.036650000000     0.607900000000    -0.226481   
O61      O      0.024780000000     0.023030000000     0.687520000000    -0.248512   
O62      O      0.038880000000     0.146600000000     0.704610000000    -0.232653   
O63      O      0.150400000000     0.010320000000     0.708340000000    -0.249024   
O64      O      0.163520000000     0.133890000000     0.688520000000    -0.240066   
O65      O      0.043230000000     0.997670000000     0.509320000000    -0.267738   
O66      O      0.792930000000     0.747510000000     0.637800000000    -0.269079   
O67      O      0.206920000000     0.210410000000     0.449280000000    -0.266182   
O68      O      0.478600000000     0.446780000000     0.447700000000    -0.269084   
O69      O      0.702810000000     0.940770000000     0.445330000000    -0.268694   
O70      O      0.541370000000     0.156040000000     0.386010000000    -0.26755    
O71      O      0.175190000000     0.026160000000     0.887150000000    -0.26793    
O72      O      0.478600000000     0.715000000000     0.699420000000    -0.269054   
O73      O      0.547910000000     0.988870000000     0.011150000000    -0.26505    
O74      O      0.953170000000     0.692210000000     0.200480000000    -0.268853   
O75      O      0.199870000000     0.716030000000     0.950900000000    -0.26905    
O76      O      0.208330000000     0.446620000000     0.445670000000    -0.266673   
O77      O      0.983070000000     0.218720000000     0.700890000000    -0.267583   
O78      O      0.637160000000     0.164430000000     0.011150000000    -0.265213   
O79      O      0.706260000000     0.438120000000     0.699730000000    -0.268668   
O80      O      0.950180000000     0.465540000000     0.194120000000    -0.268298   


