data_structure

_audit_creation_method RASPA-1.0
_audit_creation_date 2023-5-22
_audit_author_name 'Poobodin Mano'

_cell_length_a    27.7112
_cell_length_b    22.549
_cell_length_c    27.7201
_cell_angle_alpha 90
_cell_angle_beta  90
_cell_angle_gamma 90
_cell_volume      17321.2

_symmetry_cell_setting          triclinic
_symmetry_space_group_name_Hall 'P 1'
_symmetry_space_group_name_H-M  'P 1'
_symmetry_Int_Tables_number     1

_symmetry_equiv_pos_as_xyz 'x,y,z'

loop_
_atom_site_label
_atom_site_type_symbol
_atom_site_fract_x
_atom_site_fract_y
_atom_site_fract_z
_atom_site_charge
C1       C      0.905610000000     0.502220000000     0.897440000000     0.349823   
C2       C      0.893330000000     0.379170000000     0.765620000000     0.342352   
C3       C      0.779520000000     0.379010000000     0.907260000000     0.349879   
C4       C      0.773590000000     0.510910000000     0.774040000000     0.342627   
C5       C      0.025070000000     0.620450000000     0.025510000000     0.342503   
C6       C      0.145800000000     0.754750000000     0.020260000000     0.348731   
C7       C      0.023950000000     0.752040000000     0.150840000000     0.343714   
C8       C      0.157370000000     0.625690000000     0.148650000000     0.350219   
C9       C      0.265380000000     0.016260000000     0.780360000000     0.341626   
C10      C      0.401290000000     0.011040000000     0.900020000000     0.342415   
C11      C      0.269360000000     0.882120000000     0.902500000000     0.343663   
C12      C      0.393670000000     0.888270000000     0.771890000000     0.350627   
C13      C      0.654590000000     0.256530000000     0.026980000000     0.343553   
C14      C      0.530370000000     0.129640000000     0.017980000000     0.348413   
C15      C      0.648050000000     0.125840000000     0.154510000000     0.340873   
C16      C      0.526980000000     0.252980000000     0.157570000000     0.3504     
C17      C      0.405170000000     0.378240000000     0.278850000000     0.342132   
C18      C      0.278530000000     0.507460000000     0.275130000000     0.343955   
C19      C      0.283380000000     0.377540000000     0.408640000000     0.348132   
C20      C      0.400830000000     0.510750000000     0.408400000000     0.345249   
C21      C      0.655640000000     0.638560000000     0.650640000000     0.348454   
C22      C      0.521650000000     0.766680000000     0.654560000000     0.343298   
C23      C      0.646490000000     0.766840000000     0.525020000000     0.349725   
C24      C      0.516390000000     0.635870000000     0.535340000000     0.349097   
C25      C      0.897370000000     0.875510000000     0.268180000000     0.349589   
C26      C      0.766850000000     0.001060000000     0.278700000000     0.348718   
C27      C      0.774860000000     0.880810000000     0.403350000000     0.34158    
C28      C      0.908540000000     0.004540000000     0.393370000000     0.343158   
C29      C      0.011650000000     0.257900000000     0.638980000000     0.348515   
C30      C      0.155100000000     0.256930000000     0.526000000000     0.341804   
C31      C      0.141000000000     0.137680000000     0.659480000000     0.34939    
C32      C      0.032230000000     0.130640000000     0.511340000000     0.349063   
C33      C      0.966680000000     0.008120000000     0.456300000000     0.0287712  
C34      C      0.949740000000     0.094250000000     0.411330000000    -0.0125014  
C35      C      0.998900000000     0.040160000000     0.484800000000     0.0357615  
C36      C      0.983440000000     0.126580000000     0.438680000000     0.15396    
C37      C      0.735980000000     0.793430000000     0.431200000000     0.0280633  
C38      C      0.715560000000     0.885860000000     0.465070000000    -0.0136353  
C39      C      0.702320000000     0.765710000000     0.460960000000     0.0354504  
C40      C      0.680190000000     0.858780000000     0.494040000000     0.153485   
C41      C      0.188310000000     0.346600000000     0.495810000000     0.0284964  
C42      C      0.222670000000     0.255230000000     0.473190000000    -0.0130903  
C43      C      0.221720000000     0.376350000000     0.467110000000     0.0361223  
C44      C      0.257780000000     0.284810000000     0.445490000000     0.154157   
C45      C      0.467300000000     0.515850000000     0.462370000000     0.0291658  
C46      C      0.415680000000     0.598170000000     0.453910000000    -0.0120443  
C47      C      0.495100000000     0.547310000000     0.495550000000     0.0364836  
C48      C      0.442420000000     0.629660000000     0.488630000000     0.154068   
C49      C      0.708660000000     0.122820000000     0.214960000000     0.0277517  
C50      C      0.670610000000     0.034350000000     0.190660000000    -0.0136808  
C51      C      0.737290000000     0.090930000000     0.247100000000     0.0352631  
C52      C      0.698010000000     0.001870000000     0.224270000000     0.152594   
C53      C      0.468140000000     0.374870000000     0.220800000000     0.0291814  
C54      C      0.434990000000     0.285850000000     0.250310000000    -0.0122614  
C55      C      0.499390000000     0.342600000000     0.191430000000     0.0363923  
C56      C      0.467610000000     0.252660000000     0.222270000000     0.153695   
C57      C      0.203560000000     0.017660000000     0.721160000000     0.0277126  
C58      C      0.229740000000     0.107400000000     0.755820000000    -0.0129721  
C59      C      0.171390000000     0.048750000000     0.692030000000     0.0357483  
C60      C      0.196030000000     0.139180000000     0.727920000000     0.153728   
C61      C      0.472040000000     0.772390000000     0.724260000000     0.0283457  
C62      C      0.473540000000     0.851970000000     0.669300000000    -0.0131965  
C63      C      0.438840000000     0.802990000000     0.752640000000     0.0358325  
C64      C      0.438360000000     0.882210000000     0.696420000000     0.153144   
C65      C      0.429560000000     0.099350000000     0.937230000000     0.0293617  
C66      C      0.473910000000     0.010900000000     0.945650000000    -0.0122444  
C67      C      0.463180000000     0.128960000000     0.965850000000     0.0363915  
C68      C      0.509230000000     0.040830000000     0.972850000000     0.154317   
C69      C      0.972820000000     0.757340000000     0.219540000000     0.0294704  
C70      C      0.977340000000     0.838350000000     0.166120000000    -0.0121246  
C71      C      0.939840000000     0.788420000000     0.247890000000     0.0364418  
C72      C      0.942440000000     0.869110000000     0.193150000000     0.154605   
C73      C      0.223100000000     0.872620000000     0.974220000000     0.0286827  
C74      C      0.220170000000     0.797390000000     0.915380000000    -0.012599   
C75      C      0.190860000000     0.840740000000     0.002790000000     0.0353717  
C76      C      0.185870000000     0.766090000000     0.942780000000     0.153438   
C77      C      0.205950000000     0.513360000000     0.229800000000     0.029169   
C78      C      0.264070000000     0.589030000000     0.222830000000    -0.0120795  
C79      C      0.176480000000     0.542960000000     0.196930000000     0.0365765  
C80      C      0.235620000000     0.618120000000     0.188050000000     0.15448    
C81      C      0.958670000000     0.376730000000     0.710320000000     0.0277435  
C82      C      0.909660000000     0.292230000000     0.719890000000    -0.0131133  
C83      C      0.987260000000     0.346120000000     0.677360000000     0.0351204  
C84      C      0.937210000000     0.261470000000     0.685330000000     0.153827   
C85      C      0.677920000000     0.344390000000     0.985820000000     0.0294177  
C86      C      0.728560000000     0.260580000000     0.983760000000    -0.012434   
C87      C      0.710500000000     0.375200000000     0.956840000000     0.0366373  
C88      C      0.762670000000     0.291920000000     0.956130000000     0.154504   
C89      C      0.708640000000     0.516290000000     0.718340000000     0.029213   
C90      C      0.754090000000     0.601960000000     0.735470000000    -0.0121701  
C91      C      0.680280000000     0.548690000000     0.686270000000     0.0364048  
C92      C      0.726940000000     0.634700000000     0.701800000000     0.154354   
C93      C      0.954510000000     0.615610000000     0.977220000000     0.0282233  
C94      C      0.009380000000     0.535900000000     0.976690000000    -0.012963   
C95      C      0.925680000000     0.586070000000     0.943850000000     0.0356855  
C96      C      0.981590000000     0.506540000000     0.941490000000     0.153164   
Cd1      Cd     0.836330000000     0.442450000000     0.836250000000     0.510748   
Cd2      Cd     0.088430000000     0.687330000000     0.088190000000     0.510709   
Cd3      Cd     0.332250000000     0.949810000000     0.839810000000     0.511052   
Cd4      Cd     0.588350000000     0.192500000000     0.088520000000     0.510418   
Cd5      Cd     0.341450000000     0.444870000000     0.341370000000     0.510677   
Cd6      Cd     0.586120000000     0.701720000000     0.591890000000     0.509876   
Cd7      Cd     0.838480000000     0.940210000000     0.336500000000     0.511169   
Cd8      Cd     0.085000000000     0.195310000000     0.584580000000     0.510314   
H1       H      0.016490000000     0.016670000000     0.514070000000     0.0485423  
H2       H      0.961680000000     0.961410000000     0.464190000000     0.0496076  
H3       H      0.931670000000     0.116410000000     0.381620000000     0.0607999  
H4       H      0.025820000000     0.204960000000     0.435100000000     0.12072    
H5       H      0.977360000000     0.201630000000     0.394190000000     0.101229   
H6       H      0.699440000000     0.717820000000     0.458460000000     0.0476793  
H7       H      0.756560000000     0.766040000000     0.406480000000     0.0502965  
H8       H      0.719200000000     0.933760000000     0.466500000000     0.0593836  
H9       H      0.616620000000     0.880650000000     0.533220000000     0.122412   
H10      H      0.654330000000     0.940760000000     0.519090000000     0.0998555  
H11      H      0.218850000000     0.424280000000     0.465370000000     0.048377   
H12      H      0.162060000000     0.372850000000     0.515470000000     0.0502685  
H13      H      0.224560000000     0.207270000000     0.475950000000     0.0592338  
H14      H      0.327260000000     0.270350000000     0.415120000000     0.122106   
H15      H      0.295510000000     0.205940000000     0.431290000000     0.099817   
H16      H      0.526770000000     0.525310000000     0.510030000000     0.049122   
H17      H      0.478090000000     0.470880000000     0.453650000000     0.0490765  
H18      H      0.383630000000     0.618810000000     0.438920000000     0.0605511  
H19      H      0.435440000000     0.702640000000     0.536650000000     0.119549   
H20      H      0.392750000000     0.700030000000     0.489790000000     0.100194   
H21      H      0.763790000000     0.115680000000     0.267700000000     0.0484798  
H22      H      0.713680000000     0.170460000000     0.213040000000     0.0494632  
H23      H      0.643560000000     0.011080000000     0.169590000000     0.0593485  
H24      H      0.696850000000     0.919750000000     0.261930000000     0.119951   
H25      H      0.659290000000     0.923500000000     0.210950000000     0.0998427  
H26      H      0.523360000000     0.367620000000     0.168120000000     0.0493892  
H27      H      0.470140000000     0.422880000000     0.219510000000     0.0501051  
H28      H      0.410630000000     0.262260000000     0.274240000000     0.059279   
H29      H      0.498630000000     0.166430000000     0.219210000000     0.120448   
H30      H      0.445790000000     0.172320000000     0.253790000000     0.0996028  
H31      H      0.150010000000     0.023080000000     0.666750000000     0.0486944  
H32      H      0.204740000000     0.969780000000     0.717670000000     0.0487642  
H33      H      0.251600000000     0.131510000000     0.781720000000     0.0603245  
H34      H      0.159450000000     0.222020000000     0.726910000000     0.120204   
H35      H      0.210950000000     0.219120000000     0.763830000000     0.100369   
H36      H      0.427280000000     0.781790000000     0.785810000000     0.0489778  
H37      H      0.483660000000     0.728890000000     0.736240000000     0.049454   
H38      H      0.485800000000     0.871730000000     0.635760000000     0.0579323  
H39      H      0.385870000000     0.950340000000     0.688170000000     0.121068   
H40      H      0.431340000000     0.949070000000     0.644140000000     0.0989874  
H41      H      0.456360000000     0.175400000000     0.973480000000     0.0488755  
H42      H      0.399160000000     0.124440000000     0.923420000000     0.0506542  
H43      H      0.479690000000     0.964460000000     0.937130000000     0.0599429  
H44      H      0.582700000000     0.032300000000     0.993830000000     0.122024   
H45      H      0.555100000000     0.966690000000     0.973690000000     0.100853   
H46      H      0.927110000000     0.766880000000     0.280490000000     0.0493386  
H47      H      0.983130000000     0.713090000000     0.230880000000     0.0499996  
H48      H      0.990650000000     0.858570000000     0.133170000000     0.0610137  
H49      H      0.891590000000     0.939100000000     0.185340000000     0.121792   
H50      H      0.937650000000     0.937450000000     0.141870000000     0.100796   
H51      H      0.181470000000     0.859540000000     0.037570000000     0.04844    
H52      H      0.236190000000     0.914820000000     0.987700000000     0.0493782  
H53      H      0.230210000000     0.779960000000     0.880290000000     0.0606461  
H54      H      0.131470000000     0.700390000000     0.934040000000     0.120435   
H55      H      0.174460000000     0.703780000000     0.887610000000     0.100272   
H56      H      0.141720000000     0.523130000000     0.188930000000     0.0490786  
H57      H      0.193090000000     0.471810000000     0.244730000000     0.0498008  
H58      H      0.299180000000     0.607490000000     0.231560000000     0.0607064  
H59      H      0.242530000000     0.681270000000     0.131440000000     0.121562   
H60      H      0.289860000000     0.680680000000     0.173500000000     0.101061   
H61      H      0.018110000000     0.369450000000     0.662530000000     0.0480007  
H62      H      0.968180000000     0.422280000000     0.718560000000     0.0480654  
H63      H      0.878350000000     0.270380000000     0.735320000000     0.0603355  
H64      H      0.932410000000     0.187480000000     0.638110000000     0.121319   
H65      H      0.889740000000     0.188860000000     0.685040000000     0.100791   
H66      H      0.700840000000     0.420040000000     0.946460000000     0.0487266  
H67      H      0.645380000000     0.367140000000     0.997220000000     0.0508396  
H68      H      0.737200000000     0.215690000000     0.994980000000     0.0592401  
H69      H      0.837160000000     0.289580000000     0.937880000000     0.121958   
H70      H      0.813470000000     0.223010000000     0.960750000000     0.100372   
H71      H      0.650900000000     0.525400000000     0.668670000000     0.0495375  
H72      H      0.700550000000     0.469600000000     0.723110000000     0.0499893  
H73      H      0.783950000000     0.623770000000     0.753570000000     0.0608163  
H74      H      0.731570000000     0.713470000000     0.659830000000     0.121525   
H75      H      0.771620000000     0.709450000000     0.708810000000     0.101111   
H76      H      0.892420000000     0.607710000000     0.933050000000     0.0488315  
H77      H      0.942750000000     0.658870000000     0.989650000000     0.0491635  
H78      H      0.043050000000     0.515780000000     0.988210000000     0.0598274  
H79      H      0.033390000000     0.439380000000     0.932920000000     0.099595   
H80      H      0.988570000000     0.439170000000     0.888200000000     0.121016   
N1       N      0.941370000000     0.035520000000     0.420380000000    -0.153664   
N2       N      0.005760000000     0.099790000000     0.477700000000    -0.181837   
N3       N      0.995480000000     0.182010000000     0.423170000000    -0.21125    
N4       N      0.742750000000     0.853330000000     0.433530000000    -0.153937   
N5       N      0.675430000000     0.797620000000     0.493430000000    -0.182138   
N6       N      0.649200000000     0.894830000000     0.518550000000    -0.211785   
N7       N      0.188360000000     0.286120000000     0.498210000000    -0.15381    
N8       N      0.255310000000     0.345880000000     0.440470000000    -0.181197   
N9       N      0.295190000000     0.252100000000     0.427830000000    -0.211497   
N10      N      0.428110000000     0.541630000000     0.441090000000    -0.153903   
N11      N      0.484100000000     0.604820000000     0.507390000000    -0.181407   
N12      N      0.423780000000     0.681750000000     0.505260000000    -0.211225   
N13      N      0.675930000000     0.094400000000     0.186300000000    -0.153998   
N14      N      0.733550000000     0.030420000000     0.250680000000    -0.181893   
N15      N      0.685580000000     0.944190000000     0.232130000000    -0.211511   
N16      N      0.435700000000     0.346480000000     0.249790000000    -0.153634   
N17      N      0.498380000000     0.281750000000     0.190730000000    -0.181401   
N18      N      0.470180000000     0.193130000000     0.230520000000    -0.211342   
N19      N      0.233290000000     0.047070000000     0.752330000000    -0.154003   
N20      N      0.168750000000     0.109480000000     0.693690000000    -0.181521   
N21      N      0.189110000000     0.197580000000     0.738550000000    -0.211322   
N22      N      0.489650000000     0.797140000000     0.682930000000    -0.154516   
N23      N      0.422890000000     0.858460000000     0.739870000000    -0.181373   
N24      N      0.418070000000     0.931520000000     0.676430000000    -0.211503   
N25      N      0.434550000000     0.040210000000     0.927870000000    -0.153269   
N26      N      0.502010000000     0.099700000000     0.985280000000    -0.181145   
N27      N      0.551130000000     0.011480000000     0.982560000000    -0.211372   
N28      N      0.991930000000     0.782650000000     0.179080000000    -0.153449   
N29      N      0.925740000000     0.844890000000     0.235940000000    -0.181338   
N30      N      0.923560000000     0.919560000000     0.173680000000    -0.21132    
N31      N      0.238120000000     0.850560000000     0.930890000000    -0.154078   
N32      N      0.173330000000     0.786720000000     0.988170000000    -0.181721   
N33      N      0.163410000000     0.719100000000     0.921450000000    -0.211247   
N34      N      0.249410000000     0.536750000000     0.243070000000    -0.153813   
N35      N      0.190220000000     0.596110000000     0.177090000000    -0.181242   
N36      N      0.255970000000     0.664280000000     0.163650000000    -0.211328   
N37      N      0.920570000000     0.349380000000     0.732270000000    -0.154205   
N38      N      0.978130000000     0.287880000000     0.666290000000    -0.181752   
N39      N      0.920160000000     0.208310000000     0.669300000000    -0.211395   
N40      N      0.686660000000     0.286910000000     0.998610000000    -0.153655   
N41      N      0.751930000000     0.348720000000     0.940370000000    -0.181421   
N42      N      0.806760000000     0.266420000000     0.949340000000    -0.211327   
N43      N      0.745180000000     0.543060000000     0.743170000000    -0.153526   
N44      N      0.688090000000     0.608120000000     0.678920000000    -0.181001   
N45      N      0.742800000000     0.690140000000     0.690210000000    -0.211383   
N46      N      0.996110000000     0.590390000000     0.993790000000    -0.154203   
N47      N      0.938080000000     0.530990000000     0.926830000000    -0.181456   
N48      N      0.000990000000     0.457430000000     0.920350000000    -0.21177    
O1       O      0.902350000000     0.432280000000     0.777420000000    -0.250581   
O2       O      0.767350000000     0.455870000000     0.780780000000    -0.246516   
O3       O      0.906910000000     0.446870000000     0.890160000000    -0.255292   
O4       O      0.774020000000     0.434050000000     0.899690000000    -0.249198   
O5       O      0.809930000000     0.353480000000     0.880310000000    -0.247558   
O6       O      0.870610000000     0.529260000000     0.877810000000    -0.242502   
O7       O      0.857690000000     0.355290000000     0.786670000000    -0.241554   
O8       O      0.808380000000     0.534180000000     0.796840000000    -0.240541   
O9       O      0.138410000000     0.699720000000     0.015670000000    -0.255315   
O10      O      0.119990000000     0.600380000000     0.132140000000    -0.243403   
O11      O      0.064460000000     0.599090000000     0.040910000000    -0.241422   
O12      O      0.042170000000     0.774630000000     0.113180000000    -0.240136   
O13      O      0.036360000000     0.699120000000     0.160140000000    -0.245789   
O14      O      0.014760000000     0.672090000000     0.040160000000    -0.249242   
O15      O      0.128260000000     0.778020000000     0.058010000000    -0.242912   
O16      O      0.160970000000     0.680360000000     0.139090000000    -0.2534     
O17      O      0.365460000000     0.037470000000     0.881390000000    -0.238751   
O18      O      0.373800000000     0.862170000000     0.807200000000    -0.242855   
O19      O      0.293610000000     0.041820000000     0.809690000000    -0.240627   
O20      O      0.284020000000     0.862610000000     0.862300000000    -0.24197    
O21      O      0.284570000000     0.933070000000     0.914260000000    -0.248064   
O22      O      0.268500000000     0.960320000000     0.778630000000    -0.249733   
O23      O      0.404720000000     0.956080000000     0.890990000000    -0.246273   
O24      O      0.386680000000     0.943670000000     0.769750000000    -0.253911   
O25      O      0.527800000000     0.185420000000     0.023240000000    -0.248065   
O26      O      0.519700000000     0.199900000000     0.144830000000    -0.254225   
O27      O      0.661890000000     0.203290000000     0.039620000000    -0.249366   
O28      O      0.617010000000     0.100950000000     0.127710000000    -0.241678   
O29      O      0.651510000000     0.181640000000     0.150350000000    -0.246948   
O30      O      0.616110000000     0.280090000000     0.042600000000    -0.240461   
O31      O      0.558480000000     0.103370000000     0.046870000000    -0.246335   
O32      O      0.561230000000     0.279050000000     0.135950000000    -0.243963   
O33      O      0.319050000000     0.527940000000     0.288050000000    -0.242583   
O34      O      0.363770000000     0.533080000000     0.388750000000    -0.242103   
O35      O      0.405680000000     0.434400000000     0.280100000000    -0.245349   
O36      O      0.305490000000     0.353420000000     0.373850000000    -0.243849   
O37      O      0.286520000000     0.433600000000     0.410650000000    -0.248024   
O38      O      0.375020000000     0.353200000000     0.306500000000    -0.241647   
O39      O      0.266930000000     0.457910000000     0.293230000000    -0.247521   
O40      O      0.410760000000     0.457920000000     0.396420000000    -0.249533   
O41      O      0.535340000000     0.714470000000     0.664610000000    -0.24817    
O42      O      0.549180000000     0.610160000000     0.559440000000    -0.241031   
O43      O      0.651350000000     0.694390000000     0.652030000000    -0.251448   
O44      O      0.631500000000     0.788980000000     0.564120000000    -0.250153   
O45      O      0.635190000000     0.713070000000     0.518020000000    -0.25119    
O46      O      0.626020000000     0.611980000000     0.623300000000    -0.241591   
O47      O      0.538540000000     0.788600000000     0.616060000000    -0.246588   
O48      O      0.517470000000     0.691910000000     0.536320000000    -0.253585   
O49      O      0.775280000000     0.946210000000     0.274230000000    -0.256093   
O50      O      0.900200000000     0.949950000000     0.400410000000    -0.247165   
O51      O      0.893060000000     0.931330000000     0.267110000000    -0.253485   
O52      O      0.799620000000     0.852290000000     0.372690000000    -0.240795   
O53      O      0.780630000000     0.936540000000     0.403540000000    -0.249072   
O54      O      0.875870000000     0.849810000000     0.302730000000    -0.242281   
O55      O      0.793340000000     0.028100000000     0.308800000000    -0.243368   
O56      O      0.884420000000     0.028880000000     0.359990000000    -0.241074   
O57      O      0.123250000000     0.284350000000     0.550090000000    -0.240401   
O58      O      0.058980000000     0.104620000000     0.541820000000    -0.243352   
O59      O      0.044500000000     0.284760000000     0.615840000000    -0.243693   
O60      O      0.145780000000     0.192100000000     0.649540000000    -0.254193   
O61      O      0.111120000000     0.109700000000     0.633370000000    -0.243289   
O62      O      0.014040000000     0.201910000000     0.637910000000    -0.254664   
O63      O      0.154360000000     0.200870000000     0.529250000000    -0.24888    
O64      O      0.028980000000     0.186260000000     0.516240000000    -0.2555     


