data_structure

_audit_creation_method RASPA-1.0
_audit_creation_date 2023-5-23
_audit_author_name 'Poobodin Mano'

_cell_length_a    34.6088
_cell_length_b    34.631
_cell_length_c    36.6426
_cell_angle_alpha 90.0021
_cell_angle_beta  90.002
_cell_angle_gamma 120
_cell_volume      38033.7

_symmetry_cell_setting          triclinic
_symmetry_space_group_name_Hall 'P 1'
_symmetry_space_group_name_H-M  'P 1'
_symmetry_Int_Tables_number     1

_symmetry_equiv_pos_as_xyz 'x,y,z'

loop_
_atom_site_label
_atom_site_type_symbol
_atom_site_fract_x
_atom_site_fract_y
_atom_site_fract_z
_atom_site_charge
C1       C      0.757480000000     0.480560000000     0.205360000000     0.345611   
C2       C      0.701370000000     0.480370000000     0.328440000000     0.345526   
C3       C      0.844710000000     0.579210000000     0.295980000000     0.347297   
C4       C      0.713590000000     0.579680000000     0.238070000000     0.347508   
C5       C      0.465260000000     0.718430000000     0.038650000000     0.345633   
C6       C      0.465200000000     0.774220000000     0.161730000000     0.345583   
C7       C      0.564320000000     0.730210000000     0.129000000000     0.347476   
C8       C      0.564360000000     0.861650000000     0.071430000000     0.347449   
C9       C      0.757610000000     0.304380000000     0.994900000000     0.345693   
C10      C      0.701470000000     0.248210000000     0.871840000000     0.345604   
C11      C      0.844880000000     0.292590000000     0.904510000000     0.347477   
C12      C      0.713680000000     0.161310000000     0.962290000000     0.347535   
C13      C      0.288530000000     0.541450000000     0.828580000000     0.345728   
C14      C      0.232330000000     0.541270000000     0.705570000000     0.345606   
C15      C      0.276190000000     0.442050000000     0.738270000000     0.347462   
C16      C      0.145080000000     0.442400000000     0.796020000000     0.347419   
C17      C      0.524550000000     0.303510000000     0.538490000000     0.345462   
C18      C      0.524590000000     0.247700000000     0.661570000000     0.34565    
C19      C      0.425400000000     0.291670000000     0.628830000000     0.347378   
C20      C      0.425540000000     0.160330000000     0.571250000000     0.347486   
C21      C      0.232170000000     0.717430000000     0.495120000000     0.345571   
C22      C      0.288200000000     0.773480000000     0.371990000000     0.345503   
C23      C      0.144910000000     0.729010000000     0.404560000000     0.347569   
C24      C      0.276130000000     0.860430000000     0.462490000000     0.347304   
C25      C      0.400970000000     0.048730000000     0.543770000000    -0.0810486  
C26      C      0.360170000000     0.032800000000     0.525550000000     0.0363948  
C27      C      0.341270000000     0.060340000000     0.523780000000    -0.0807848  
C28      C      0.363340000000     0.102760000000     0.539560000000     0.0711681  
C29      C      0.422140000000     0.091310000000     0.559120000000     0.0709819  
C30      C      0.337810000000     0.987870000000     0.508320000000     0.0364423  
C31      C      0.362880000000     0.971990000000     0.490410000000    -0.0810489  
C32      C      0.341640000000     0.929420000000     0.475020000000     0.0709515  
C33      C      0.271150000000     0.917900000000     0.493970000000     0.0711445  
C34      C      0.291340000000     0.960310000000     0.509780000000    -0.0807753  
C35      C      0.291250000000     0.357390000000     0.690790000000    -0.0807596  
C36      C      0.337710000000     0.376230000000     0.692220000000     0.0364406  
C37      C      0.362830000000     0.417100000000     0.710230000000    -0.0810855  
C38      C      0.341640000000     0.438430000000     0.725720000000     0.0709703  
C39      C      0.271100000000     0.379620000000     0.706700000000     0.0710967  
C40      C      0.360040000000     0.353700000000     0.674840000000     0.0364086  
C41      C      0.341140000000     0.307270000000     0.676500000000    -0.0807443  
C42      C      0.363190000000     0.286950000000     0.660600000000     0.071093   
C43      C      0.421970000000     0.357230000000     0.641130000000     0.0710227  
C44      C      0.400810000000     0.378600000000     0.656600000000    -0.0811059  
C45      C      0.216300000000     0.673010000000     0.587990000000    -0.08091    
C46      C      0.230500000000     0.641740000000     0.584400000000     0.0363679  
C47      C      0.244960000000     0.636250000000     0.550080000000    -0.0808971  
C48      C      0.245180000000     0.661760000000     0.520480000000     0.0710746  
C49      C      0.216910000000     0.697940000000     0.557800000000     0.0707965  
C50      C      0.230510000000     0.615220000000     0.616300000000     0.036394   
C51      C      0.244010000000     0.634930000000     0.650800000000    -0.0808904  
C52      C      0.244290000000     0.609670000000     0.680390000000     0.071094   
C53      C      0.217970000000     0.545730000000     0.642710000000     0.0708182  
C54      C      0.217320000000     0.570020000000     0.612520000000    -0.080965   
C55      C      0.033380000000     0.417720000000     0.823510000000    -0.0810359  
C56      C      0.017480000000     0.376940000000     0.841690000000     0.0364045  
C57      C      0.045080000000     0.358100000000     0.843470000000    -0.0807678  
C58      C      0.087540000000     0.380210000000     0.827710000000     0.0710894  
C59      C      0.075990000000     0.438940000000     0.808170000000     0.0709391  
C60      C      0.972490000000     0.354490000000     0.858860000000     0.0364315  
C61      C      0.956520000000     0.379460000000     0.876810000000    -0.0810633  
C62      C      0.913900000000     0.358150000000     0.892150000000     0.0709792  
C63      C      0.902490000000     0.287790000000     0.873060000000     0.071128   
C64      C      0.944960000000     0.308050000000     0.857310000000    -0.0807813  
C65      C      0.657100000000     0.232510000000     0.778940000000    -0.0809799  
C66      C      0.625410000000     0.246170000000     0.782660000000     0.0363929  
C67      C      0.619600000000     0.260180000000     0.817070000000    -0.080904   
C68      C      0.645240000000     0.260520000000     0.846640000000     0.0710617  
C69      C      0.682140000000     0.233240000000     0.809100000000     0.0708225  
C70      C      0.598800000000     0.246100000000     0.750780000000     0.0363924  
C71      C      0.618570000000     0.260000000000     0.716340000000    -0.0809373  
C72      C      0.593210000000     0.260200000000     0.686770000000     0.0711046  
C73      C      0.529060000000     0.233010000000     0.724360000000     0.0707854  
C74      C      0.553440000000     0.232420000000     0.754520000000    -0.0809379  
C75      C      0.369760000000     0.761110000000     0.317120000000    -0.0808646  
C76      C      0.364280000000     0.775580000000     0.282800000000     0.0363254  
C77      C      0.332900000000     0.789650000000     0.279180000000    -0.0808821  
C78      C      0.307840000000     0.788890000000     0.309340000000     0.0707716  
C79      C      0.344110000000     0.760740000000     0.346680000000     0.0710618  
C80      C      0.390930000000     0.775700000000     0.250930000000     0.0364644  
C81      C      0.436180000000     0.789000000000     0.254760000000    -0.0810172  
C82      C      0.460580000000     0.788470000000     0.224600000000     0.0708184  
C83      C      0.396650000000     0.762050000000     0.186840000000     0.0710912  
C84      C      0.371270000000     0.762220000000     0.216410000000    -0.0809749  
C85      C      0.648640000000     0.961540000000     0.023870000000    -0.0808091  
C86      C      0.629730000000     0.989080000000     0.025580000000     0.036416   
C87      C      0.588960000000     0.973200000000     0.043810000000    -0.0810677  
C88      C      0.567790000000     0.930650000000     0.059230000000     0.0709842  
C89      C      0.626570000000     0.919150000000     0.039710000000     0.0711901  
C90      C      0.652080000000     0.033960000000     0.008270000000     0.0364498  
C91      C      0.698550000000     0.061540000000     0.009710000000    -0.0807718  
C92      C      0.718710000000     0.103910000000     0.993840000000     0.0710811  
C93      C      0.648200000000     0.092300000000     0.974840000000     0.0710308  
C94      C      0.626990000000     0.049780000000     0.990300000000    -0.0810995  
C95      C      0.371320000000     0.636690000000     0.983910000000    -0.0809191  
C96      C      0.391140000000     0.642410000000     0.949500000000     0.0363878  
C97      C      0.436510000000     0.674020000000     0.945770000000    -0.0809524  
C98      C      0.460850000000     0.699070000000     0.975910000000     0.0708001  
C99      C      0.396650000000     0.662330000000     0.013460000000     0.0710842  
C100     C      0.364560000000     0.615750000000     0.917660000000     0.0363724  
C101     C      0.332840000000     0.570450000000     0.921470000000    -0.0809307  
C102     C      0.307820000000     0.546040000000     0.891350000000     0.0707992  
C103     C      0.344810000000     0.610040000000     0.853650000000     0.071077   
C104     C      0.370430000000     0.635430000000     0.883180000000    -0.0808844  
C105     C      0.656740000000     0.451530000000     0.421240000000    -0.0809617  
C106     C      0.625320000000     0.406120000000     0.417520000000     0.0363792  
C107     C      0.619770000000     0.386310000000     0.383130000000    -0.0809217  
C108     C      0.645390000000     0.411690000000     0.353600000000     0.0710895  
C109     C      0.681780000000     0.475910000000     0.391120000000     0.0708137  
C110     C      0.598720000000     0.379490000000     0.449360000000     0.0363921  
C111     C      0.618430000000     0.385490000000     0.483840000000    -0.080916   
C112     C      0.593090000000     0.359870000000     0.513380000000     0.0710609  
C113     C      0.529080000000     0.322590000000     0.475680000000     0.0708319  
C114     C      0.553440000000     0.347600000000     0.445540000000    -0.080962   
C115     C      0.956350000000     0.603760000000     0.323570000000    -0.0810478  
C116     C      0.972300000000     0.644570000000     0.341710000000     0.0364167  
C117     C      0.944730000000     0.663450000000     0.343470000000    -0.0807523  
C118     C      0.902270000000     0.641360000000     0.327700000000     0.0710886  
C119     C      0.913730000000     0.582560000000     0.308220000000     0.0709598  
C120     C      0.017310000000     0.667030000000     0.358860000000     0.0364109  
C121     C      0.033320000000     0.642080000000     0.376790000000    -0.0810051  
C122     C      0.075940000000     0.663410000000     0.392130000000     0.0709462  
C123     C      0.087280000000     0.733760000000     0.373080000000     0.0711234  
C124     C      0.044820000000     0.713470000000     0.357320000000    -0.0807505  
C125     C      0.648560000000     0.714510000000     0.176600000000    -0.0807018  
C126     C      0.629660000000     0.668080000000     0.174860000000     0.0363751  
C127     C      0.588900000000     0.643230000000     0.156610000000    -0.0809799  
C128     C      0.567730000000     0.664620000000     0.141190000000     0.0709509  
C129     C      0.626510000000     0.734870000000     0.160750000000     0.071066   
C130     C      0.652010000000     0.645530000000     0.192150000000     0.0364097  
C131     C      0.698480000000     0.664390000000     0.190740000000    -0.0807443  
C132     C      0.718640000000     0.642150000000     0.206590000000     0.0710947  
C133     C      0.648110000000     0.583260000000     0.225520000000     0.0710017  
C134     C      0.626910000000     0.604600000000     0.210090000000    -0.0810675  
C135     C      0.745740000000     0.386270000000     0.049660000000    -0.080935   
C136     C      0.759320000000     0.380130000000     0.084150000000     0.0364054  
C137     C      0.772660000000     0.348210000000     0.087920000000    -0.0810048  
C138     C      0.772050000000     0.323290000000     0.057740000000     0.0708619  
C139     C      0.745500000000     0.360730000000     0.020070000000     0.0711163  
C140     C      0.759280000000     0.406630000000     0.116050000000     0.0363521  
C141     C      0.773330000000     0.452060000000     0.112460000000    -0.0809174  
C142     C      0.772670000000     0.476340000000     0.142650000000     0.0707991  
C143     C      0.744630000000     0.411940000000     0.179980000000     0.0710474  
C144     C      0.744900000000     0.386680000000     0.150380000000    -0.0808969  
Cd1      Cd     0.754960000000     0.531310000000     0.266990000000     0.509605   
Cd2      Cd     0.516160000000     0.771850000000     0.100180000000     0.509632   
Cd3      Cd     0.755070000000     0.250990000000     0.933350000000     0.509659   
Cd4      Cd     0.234880000000     0.490480000000     0.767160000000     0.509643   
Cd5      Cd     0.473650000000     0.250120000000     0.600020000000     0.509633   
Cd6      Cd     0.234670000000     0.770740000000     0.433530000000     0.509627   
H1       H      0.310020000000     0.049610000000     0.509680000000     0.0562123  
H2       H      0.347830000000     0.123210000000     0.537300000000     0.0359201  
H3       H      0.453740000000     0.102370000000     0.572830000000     0.0351802  
H4       H      0.416440000000     0.028340000000     0.546440000000     0.0560823  
H5       H      0.398780000000     0.992400000000     0.487990000000     0.056083   
H6       H      0.362350000000     0.918410000000     0.461540000000     0.0351697  
H7       H      0.235170000000     0.897440000000     0.495970000000     0.0359256  
H8       H      0.270650000000     0.971000000000     0.523640000000     0.0562061  
H9       H      0.398720000000     0.432510000000     0.712630000000     0.0561115  
H10      H      0.362370000000     0.470090000000     0.739250000000     0.0351815  
H11      H      0.235130000000     0.364170000000     0.704700000000     0.0359247  
H12      H      0.270530000000     0.326080000000     0.676870000000     0.0562096  
H13      H      0.309900000000     0.286720000000     0.690600000000     0.0561928  
H14      H      0.347700000000     0.251000000000     0.662780000000     0.035929   
H15      H      0.453550000000     0.377810000000     0.627410000000     0.0351659  
H16      H      0.416270000000     0.414450000000     0.654020000000     0.0561169  
H17      H      0.256760000000     0.612880000000     0.546160000000     0.0562361  
H18      H      0.256860000000     0.656660000000     0.494450000000     0.036195   
H19      H      0.205620000000     0.721750000000     0.561730000000     0.0353341  
H20      H      0.204290000000     0.677930000000     0.613890000000     0.0561467  
H21      H      0.255000000000     0.669910000000     0.654880000000     0.0562103  
H22      H      0.255200000000     0.626250000000     0.706580000000     0.0361742  
H23      H      0.207480000000     0.510830000000     0.638630000000     0.0353363  
H24      H      0.206080000000     0.553270000000     0.586470000000     0.0561664  
H25      H      0.034370000000     0.326870000000     0.857550000000     0.0562206  
H26      H      0.108030000000     0.364760000000     0.829970000000     0.035926   
H27      H      0.087020000000     0.470520000000     0.794480000000     0.0351811  
H28      H      0.012930000000     0.433130000000     0.820840000000     0.0560837  
H29      H      0.976910000000     0.415330000000     0.879300000000     0.0560951  
H30      H      0.902820000000     0.378770000000     0.905660000000     0.0351679  
H31      H      0.882050000000     0.251830000000     0.870980000000     0.0359297  
H32      H      0.955720000000     0.287450000000     0.843410000000     0.0562184  
H33      H      0.595890000000     0.271540000000     0.821100000000     0.0562384  
H34      H      0.639890000000     0.271840000000     0.872740000000     0.0361711  
H35      H      0.706300000000     0.222380000000     0.805080000000     0.0353508  
H36      H      0.662280000000     0.220860000000     0.752970000000     0.0561794  
H37      H      0.653650000000     0.271390000000     0.712290000000     0.0562484  
H38      H      0.609850000000     0.271440000000     0.660640000000     0.036165   
H39      H      0.494050000000     0.222130000000     0.728400000000     0.0353459  
H40      H      0.536650000000     0.220850000000     0.780520000000     0.056158   
H41      H      0.327980000000     0.801660000000     0.253280000000     0.0561383  
H42      H      0.283940000000     0.800080000000     0.305390000000     0.0353519  
H43      H      0.349200000000     0.749060000000     0.372720000000     0.0362044  
H44      H      0.393220000000     0.749410000000     0.321070000000     0.0562177  
H45      H      0.452880000000     0.800230000000     0.280830000000     0.0561869  
H46      H      0.495520000000     0.799040000000     0.228710000000     0.0353424  
H47      H      0.380110000000     0.751150000000     0.160640000000     0.0361772  
H48      H      0.336270000000     0.751140000000     0.212290000000     0.0562685  
H49      H      0.573500000000     0.993600000000     0.046440000000     0.0560999  
H50      H      0.536200000000     0.919640000000     0.072940000000     0.0351742  
H51      H      0.642070000000     0.898690000000     0.037490000000     0.0359096  
H52      H      0.679870000000     0.972230000000     0.009760000000     0.0562286  
H53      H      0.719250000000     0.050900000000     0.023610000000     0.0562206  
H54      H      0.754690000000     0.124400000000     0.995840000000     0.0359417  
H55      H      0.627480000000     0.103270000000     0.961330000000     0.035155   
H56      H      0.591090000000     0.029340000000     0.987890000000     0.0560928  
H57      H      0.453340000000     0.679130000000     0.919800000000     0.0561591  
H58      H      0.495880000000     0.723150000000     0.971880000000     0.0353494  
H59      H      0.379980000000     0.657040000000     0.039560000000     0.0361735  
H60      H      0.336230000000     0.613050000000     0.987950000000     0.0562406  
H61      H      0.327620000000     0.553720000000     0.947500000000     0.0561485  
H62      H      0.283630000000     0.511070000000     0.895450000000     0.035353   
H63      H      0.350200000000     0.626600000000     0.827490000000     0.0361717  
H64      H      0.394170000000     0.670470000000     0.879080000000     0.0562211  
H65      H      0.596270000000     0.351200000000     0.379090000000     0.0562433  
H66      H      0.640250000000     0.395030000000     0.327500000000     0.0361994  
H67      H      0.705720000000     0.510970000000     0.395150000000     0.0353532  
H68      H      0.661710000000     0.468340000000     0.447200000000     0.0561671  
H69      H      0.653450000000     0.409360000000     0.487950000000     0.0562365  
H70      H      0.609670000000     0.365370000000     0.539560000000     0.0361955  
H71      H      0.494130000000     0.298290000000     0.471580000000     0.0353335  
H72      H      0.536700000000     0.342270000000     0.419500000000     0.0561687  
H73      H      0.955460000000     0.694700000000     0.357530000000     0.05621    
H74      H      0.881810000000     0.656860000000     0.329930000000     0.0359461  
H75      H      0.902670000000     0.550970000000     0.294550000000     0.0351662  
H76      H      0.976760000000     0.588310000000     0.320920000000     0.0560865  
H77      H      0.012950000000     0.606200000000     0.379260000000     0.0560604  
H78      H      0.087050000000     0.642800000000     0.405620000000     0.0351686  
H79      H      0.107690000000     0.769720000000     0.371020000000     0.0359354  
H80      H      0.034040000000     0.734070000000     0.343440000000     0.0562     
H81      H      0.573450000000     0.607370000000     0.153960000000     0.0560517  
H82      H      0.536160000000     0.644070000000     0.127460000000     0.0351748  
H83      H      0.641990000000     0.770800000000     0.162990000000     0.0359311  
H84      H      0.679790000000     0.735030000000     0.190720000000     0.0561937  
H85      H      0.719190000000     0.695740000000     0.176870000000     0.0562039  
H86      H      0.754620000000     0.657630000000     0.204610000000     0.0359264  
H87      H      0.627390000000     0.551560000000     0.239000000000     0.0351683  
H88      H      0.591010000000     0.589150000000     0.212480000000     0.0560925  
H89      H      0.783980000000     0.342780000000     0.113960000000     0.0561889  
H90      H      0.782650000000     0.298960000000     0.061810000000     0.0353358  
H91      H      0.734510000000     0.366340000000     0.993900000000     0.036151   
H92      H      0.734640000000     0.410170000000     0.045590000000     0.05625    
H93      H      0.785270000000     0.468980000000     0.086550000000     0.056149   
H94      H      0.783860000000     0.511420000000     0.138730000000     0.0353492  
H95      H      0.733030000000     0.395180000000     0.206030000000     0.036211   
H96      H      0.733200000000     0.351540000000     0.154310000000     0.0562387  
N1       N      0.403610000000     0.118200000000     0.556820000000    -0.178874   
N2       N      0.296180000000     0.902520000000     0.476990000000    -0.17884    
N3       N      0.296180000000     0.419970000000     0.723750000000    -0.1789     
N4       N      0.403450000000     0.311820000000     0.643330000000    -0.178869   
N5       N      0.231360000000     0.692410000000     0.524370000000    -0.178441   
N6       N      0.231470000000     0.565460000000     0.676330000000    -0.178464   
N7       N      0.102940000000     0.420460000000     0.810460000000    -0.178856   
N8       N      0.887020000000     0.312720000000     0.890080000000    -0.178914   
N9       N      0.676320000000     0.247260000000     0.842630000000    -0.178467   
N10      N      0.548860000000     0.246910000000     0.690800000000    -0.178432   
N11      N      0.313350000000     0.774430000000     0.342770000000    -0.178405   
N12      N      0.440910000000     0.774980000000     0.190950000000    -0.178437   
N13      N      0.586310000000     0.903750000000     0.056970000000    -0.178928   
N14      N      0.693650000000     0.119240000000     0.976810000000    -0.178886   
N15      N      0.441020000000     0.693310000000     0.009440000000    -0.178426   
N16      N      0.313690000000     0.565750000000     0.857760000000    -0.178429   
N17      N      0.676210000000     0.456090000000     0.357610000000    -0.178455   
N18      N      0.548810000000     0.328620000000     0.509280000000    -0.17839    
N19      N      0.886840000000     0.601100000000     0.310460000000    -0.178828   
N20      N      0.102780000000     0.708850000000     0.390090000000    -0.17889    
N21      N      0.586250000000     0.710030000000     0.143470000000    -0.178874   
N22      N      0.693570000000     0.601760000000     0.223580000000    -0.178884   
N23      N      0.758450000000     0.329430000000     0.024130000000    -0.178496   
N24      N      0.758320000000     0.456380000000     0.176100000000    -0.178435   
O1       O      0.697240000000     0.463150000000     0.297140000000    -0.242633   
O2       O      0.755450000000     0.595610000000     0.237050000000    -0.245738   
O3       O      0.744320000000     0.463220000000     0.236610000000    -0.242659   
O4       O      0.828990000000     0.541370000000     0.280950000000    -0.252642   
O5       O      0.818860000000     0.595220000000     0.297240000000    -0.245646   
O6       O      0.769630000000     0.521580000000     0.202790000000    -0.249894   
O7       O      0.730320000000     0.521360000000     0.331140000000    -0.249874   
O8       O      0.691250000000     0.541720000000     0.252860000000    -0.252709   
O9       O      0.448100000000     0.761760000000     0.130310000000    -0.242623   
O10      O      0.580300000000     0.835750000000     0.070110000000    -0.245702   
O11      O      0.448040000000     0.714120000000     0.069970000000    -0.242781   
O12      O      0.526460000000     0.708060000000     0.113970000000    -0.252659   
O13      O      0.580270000000     0.772040000000     0.130310000000    -0.245637   
O14      O      0.506230000000     0.747510000000     0.035950000000    -0.249861   
O15      O      0.506070000000     0.785730000000     0.164500000000    -0.249923   
O16      O      0.526490000000     0.845960000000     0.086430000000    -0.252735   
O17      O      0.697120000000     0.261090000000     0.903160000000    -0.242808   
O18      O      0.755540000000     0.187220000000     0.963350000000    -0.245646   
O19      O      0.769130000000     0.275040000000     0.997640000000    -0.249965   
O20      O      0.829140000000     0.314800000000     0.919360000000    -0.252667   
O21      O      0.819020000000     0.250750000000     0.903370000000    -0.245692   
O22      O      0.745070000000     0.308980000000     0.963510000000    -0.24276    
O23      O      0.730660000000     0.236460000000     0.869150000000    -0.24991    
O24      O      0.691350000000     0.176930000000     0.947460000000    -0.252679   
O25      O      0.220920000000     0.500450000000     0.702840000000    -0.249949   
O26      O      0.160760000000     0.480220000000     0.780970000000    -0.252653   
O27      O      0.292920000000     0.558560000000     0.797210000000    -0.242883   
O28      O      0.234330000000     0.426170000000     0.737200000000    -0.245607   
O29      O      0.298550000000     0.479990000000     0.753100000000    -0.252616   
O30      O      0.259300000000     0.500570000000     0.831370000000    -0.250006   
O31      O      0.244780000000     0.558410000000     0.736980000000    -0.242636   
O32      O      0.171000000000     0.426480000000     0.797350000000    -0.245666   
O33      O      0.541770000000     0.260460000000     0.630220000000    -0.242753   
O34      O      0.409560000000     0.186190000000     0.569920000000    -0.245701   
O35      O      0.541700000000     0.308030000000     0.569880000000    -0.242607   
O36      O      0.463270000000     0.313860000000     0.613830000000    -0.252684   
O37      O      0.409470000000     0.249840000000     0.630110000000    -0.245643   
O38      O      0.483660000000     0.274230000000     0.535740000000    -0.249896   
O39      O      0.483640000000     0.235900000000     0.664280000000    -0.249901   
O40      O      0.463410000000     0.176050000000     0.586260000000    -0.252711   
O41      O      0.292280000000     0.760210000000     0.403230000000    -0.242589   
O42      O      0.234260000000     0.834560000000     0.463530000000    -0.245626   
O43      O      0.245420000000     0.713330000000     0.463880000000    -0.242635   
O44      O      0.170700000000     0.770860000000     0.403490000000    -0.245779   
O45      O      0.160690000000     0.706830000000     0.419390000000    -0.252753   
O46      O      0.219920000000     0.746230000000     0.497690000000    -0.249931   
O47      O      0.259310000000     0.785620000000     0.369390000000    -0.249926   
O48      O      0.298440000000     0.844760000000     0.447690000000    -0.252645   


