data_structure

_audit_creation_method RASPA-1.0
_audit_creation_date 2023-5-22
_audit_author_name 'Poobodin Mano'

_cell_length_a    36.3911
_cell_length_b    35.8423
_cell_length_c    36.0093
_cell_angle_alpha 90
_cell_angle_beta  90
_cell_angle_gamma 90
_cell_volume      46968.4

_symmetry_cell_setting          triclinic
_symmetry_space_group_name_Hall 'P 1'
_symmetry_space_group_name_H-M  'P 1'
_symmetry_Int_Tables_number     1

_symmetry_equiv_pos_as_xyz 'x,y,z'

loop_
_atom_site_label
_atom_site_type_symbol
_atom_site_fract_x
_atom_site_fract_y
_atom_site_fract_z
_atom_site_charge
C1       C      0.896730000000     0.407050000000     0.903980000000     0.347918   
C2       C      0.805300000000     0.407140000000     0.810960000000     0.347638   
C3       C      0.897570000000     0.315020000000     0.810470000000     0.348177   
C4       C      0.804840000000     0.314180000000     0.903730000000     0.348526   
C5       C      0.055260000000     0.563100000000     0.061690000000     0.347776   
C6       C      0.148280000000     0.655510000000     0.061680000000     0.34822    
C7       C      0.055810000000     0.654610000000     0.154030000000     0.347963   
C8       C      0.148690000000     0.561800000000     0.153610000000     0.348446   
C9       C      0.304500000000     0.813580000000     0.903640000000     0.348662   
C10      C      0.304540000000     0.906090000000     0.810290000000     0.347631   
C11      C      0.396730000000     0.905450000000     0.902770000000     0.347553   
C12      C      0.396810000000     0.813840000000     0.809370000000     0.347966   
C13      C      0.648090000000     0.154610000000     0.059710000000     0.348182   
C14      C      0.555750000000     0.061500000000     0.059950000000     0.347911   
C15      C      0.648750000000     0.060940000000     0.152120000000     0.348557   
C16      C      0.555950000000     0.153390000000     0.152230000000     0.347986   
C17      C      0.306790000000     0.403710000000     0.309700000000     0.348163   
C18      C      0.398920000000     0.311040000000     0.309890000000     0.347693   
C19      C      0.399500000000     0.403950000000     0.402890000000     0.348476   
C20      C      0.307570000000     0.311440000000     0.402910000000     0.347691   
C21      C      0.647780000000     0.563990000000     0.653010000000     0.347935   
C22      C      0.554860000000     0.656430000000     0.652570000000     0.34832    
C23      C      0.647860000000     0.655980000000     0.560710000000     0.347935   
C24      C      0.555790000000     0.562790000000     0.560090000000     0.348255   
C25      C      0.898640000000     0.812460000000     0.311340000000     0.347486   
C26      C      0.806300000000     0.904310000000     0.310200000000     0.348041   
C27      C      0.806380000000     0.812840000000     0.403800000000     0.347828   
C28      C      0.898620000000     0.905020000000     0.404500000000     0.348545   
C29      C      0.055260000000     0.157630000000     0.653250000000     0.348616   
C30      C      0.147850000000     0.064720000000     0.653250000000     0.348103   
C31      C      0.055350000000     0.063860000000     0.561240000000     0.347874   
C32      C      0.148530000000     0.156230000000     0.560910000000     0.347836   
C33      C      0.979540000000     0.940710000000     0.453370000000    -0.0809796  
C34      C      0.965070000000     0.972090000000     0.471420000000     0.0365011  
C35      C      0.927710000000     0.980290000000     0.466610000000    -0.0810967  
C36      C      0.905880000000     0.957540000000     0.444160000000     0.0713278  
C37      C      0.956890000000     0.918510000000     0.431190000000     0.0711174  
C38      C      0.988800000000     0.996180000000     0.495040000000     0.0364123  
C39      C      0.015870000000     0.980570000000     0.517960000000    -0.0809877  
C40      C      0.037930000000     0.003630000000     0.539880000000     0.0711694  
C41      C      0.007100000000     0.057270000000     0.517230000000     0.0712466  
C42      C      0.984640000000     0.035060000000     0.494870000000    -0.0809435  
C43      C      0.723350000000     0.717000000000     0.531890000000    -0.0810071  
C44      C      0.715240000000     0.722550000000     0.494230000000     0.0364942  
C45      C      0.683950000000     0.705240000000     0.479460000000    -0.0808849  
C46      C      0.661750000000     0.683030000000     0.502080000000     0.0711115  
C47      C      0.700480000000     0.694700000000     0.553740000000     0.07139    
C48      C      0.739260000000     0.746230000000     0.470510000000     0.0364661  
C49      C      0.754870000000     0.779130000000     0.484440000000    -0.0808484  
C50      C      0.777320000000     0.801040000000     0.461770000000     0.0711059  
C51      C      0.769290000000     0.758820000000     0.411740000000     0.0713839  
C52      C      0.746790000000     0.736200000000     0.433670000000    -0.0809235  
C53      C      0.246830000000     0.235750000000     0.432810000000    -0.0809572  
C54      C      0.240640000000     0.245110000000     0.470090000000     0.0364843  
C55      C      0.257630000000     0.277170000000     0.484310000000    -0.0808901  
C56      C      0.280030000000     0.298960000000     0.461480000000     0.0711235  
C57      C      0.269330000000     0.258230000000     0.410740000000     0.0713907  
C58      C      0.216510000000     0.221670000000     0.493940000000     0.0364523  
C59      C      0.184270000000     0.205780000000     0.479670000000    -0.0808326  
C60      C      0.161890000000     0.183910000000     0.502450000000     0.0710581  
C61      C      0.202330000000     0.193100000000     0.553260000000     0.0713317  
C62      C      0.225400000000     0.215020000000     0.531240000000    -0.0809521  
C63      C      0.518110000000     0.479750000000     0.514730000000    -0.0808867  
C64      C      0.489740000000     0.495160000000     0.493330000000     0.0364608  
C65      C      0.484190000000     0.533830000000     0.494780000000    -0.0810372  
C66      C      0.506540000000     0.556020000000     0.517270000000     0.071345   
C67      C      0.540010000000     0.502790000000     0.536840000000     0.0710783  
C68      C      0.466040000000     0.471080000000     0.469670000000     0.0364539  
C69      C      0.480910000000     0.440900000000     0.450000000000    -0.080884   
C70      C      0.458240000000     0.418660000000     0.427860000000     0.0710824  
C71      C      0.406440000000     0.455340000000     0.444030000000     0.0713582  
C72      C      0.428270000000     0.478070000000     0.466490000000    -0.0810382  
C73      C      0.724640000000     0.940670000000     0.263100000000    -0.0809285  
C74      C      0.739480000000     0.970320000000     0.242620000000     0.0364662  
C75      C      0.777320000000     0.977130000000     0.245220000000    -0.081047   
C76      C      0.799260000000     0.954760000000     0.267940000000     0.0713276  
C77      C      0.747420000000     0.918780000000     0.285470000000     0.0710502  
C78      C      0.715640000000     0.994090000000     0.218810000000     0.0364407  
C79      C      0.686880000000     0.978460000000     0.198100000000    -0.0809344  
C80      C      0.664740000000     0.001240000000     0.175960000000     0.0711869  
C81      C      0.698770000000     0.054620000000     0.194100000000     0.0712914  
C82      C      0.721370000000     0.032690000000     0.216590000000    -0.0809931  
C83      C      0.457290000000     0.233580000000     0.279660000000    -0.0809402  
C84      C      0.465180000000     0.243800000000     0.242930000000     0.0364459  
C85      C      0.450210000000     0.277090000000     0.229220000000    -0.0808705  
C86      C      0.428030000000     0.299190000000     0.251970000000     0.0711194  
C87      C      0.435090000000     0.256410000000     0.301670000000     0.0713703  
C88      C      0.488950000000     0.219940000000     0.219120000000     0.0365542  
C89      C      0.519880000000     0.201990000000     0.233900000000    -0.0809152  
C90      C      0.541940000000     0.179760000000     0.211140000000     0.0711606  
C91      C      0.503720000000     0.192610000000     0.159380000000     0.071421   
C92      C      0.481000000000     0.214950000000     0.181360000000    -0.0810289  
C93      C      0.247610000000     0.984530000000     0.779770000000    -0.0809403  
C94      C      0.238270000000     0.973600000000     0.743610000000     0.0364949  
C95      C      0.251750000000     0.939470000000     0.730360000000    -0.0809291  
C96      C      0.273930000000     0.917270000000     0.753020000000     0.0710998  
C97      C      0.269760000000     0.961580000000     0.801720000000     0.0713149  
C98      C      0.214580000000     0.997620000000     0.719880000000     0.0364651  
C99      C      0.184720000000     0.017020000000     0.735080000000    -0.0808991  
C100     C      0.162740000000     0.039410000000     0.712400000000     0.0711937  
C101     C      0.198950000000     0.023910000000     0.659890000000     0.0714146  
C102     C      0.221550000000     0.001350000000     0.681770000000    -0.080929   
C103     C      0.425990000000     0.740540000000     0.745010000000    -0.0809194  
C104     C      0.463820000000     0.747430000000     0.742360000000     0.0363718  
C105     C      0.478570000000     0.777290000000     0.762600000000    -0.0808616  
C106     C      0.455730000000     0.799310000000     0.784780000000     0.0710259  
C107     C      0.403980000000     0.763050000000     0.767530000000     0.0712     
C108     C      0.487740000000     0.723550000000     0.718740000000     0.0365241  
C109     C      0.482140000000     0.684910000000     0.716840000000    -0.0810494  
C110     C      0.504830000000     0.662890000000     0.694530000000     0.0712751  
C111     C      0.538660000000     0.716250000000     0.675960000000     0.0711333  
C112     C      0.516430000000     0.739120000000     0.697910000000    -0.080975   
C113     C      0.447590000000     0.939390000000     0.983730000000    -0.0809044  
C114     C      0.464030000000     0.971770000000     0.969570000000     0.0365233  
C115     C      0.457260000000     0.981390000000     0.932470000000    -0.0809844  
C116     C      0.434690000000     0.958880000000     0.910510000000     0.0714217  
C117     C      0.425080000000     0.917580000000     0.961020000000     0.071074   
C118     C      0.488130000000     0.995330000000     0.993330000000     0.036399   
C119     C      0.479550000000     0.001590000000     0.030760000000    -0.0808376  
C120     C      0.502510000000     0.023740000000     0.052670000000     0.0713106  
C121     C      0.542260000000     0.033880000000     0.001490000000     0.0711175  
C122     C      0.519980000000     0.011800000000     0.978820000000    -0.0808454  
C123     C      0.950850000000     0.778940000000     0.231090000000    -0.0808651  
C124     C      0.965130000000     0.745250000000     0.244580000000     0.0364748  
C125     C      0.956540000000     0.734660000000     0.281030000000    -0.0809269  
C126     C      0.934290000000     0.757500000000     0.303000000000     0.071324   
C127     C      0.928600000000     0.801050000000     0.253780000000     0.0710582  
C128     C      0.988890000000     0.721360000000     0.220810000000     0.0364768  
C129     C      0.981400000000     0.716960000000     0.182880000000    -0.0809722  
C130     C      0.004090000000     0.694540000000     0.160940000000     0.0714135  
C131     C      0.041390000000     0.680460000000     0.213070000000     0.0711812  
C132     C      0.019350000000     0.702740000000     0.235790000000    -0.0808625  
C133     C      0.223630000000     0.777960000000     0.952670000000    -0.0808946  
C134     C      0.238230000000     0.746880000000     0.971120000000     0.0364475  
C135     C      0.275650000000     0.738850000000     0.966500000000    -0.0810071  
C136     C      0.297410000000     0.761470000000     0.943850000000     0.0713023  
C137     C      0.246210000000     0.800050000000     0.930300000000     0.0710885  
C138     C      0.214590000000     0.722900000000     0.994930000000     0.0364666  
C139     C      0.187350000000     0.738590000000     0.017600000000    -0.0809287  
C140     C      0.165370000000     0.715630000000     0.039720000000     0.0710318  
C141     C      0.196630000000     0.661950000000     0.017750000000     0.071292   
C142     C      0.219010000000     0.684060000000     0.995210000000    -0.0810089  
C143     C      0.187040000000     0.478950000000     0.198750000000    -0.0808867  
C144     C      0.215750000000     0.494440000000     0.219610000000     0.0364776  
C145     C      0.221380000000     0.533080000000     0.217800000000    -0.0810429  
C146     C      0.198710000000     0.555180000000     0.195550000000     0.0713106  
C147     C      0.164820000000     0.501900000000     0.176860000000     0.0710906  
C148     C      0.239690000000     0.470460000000     0.243130000000     0.0364613  
C149     C      0.224950000000     0.440530000000     0.263280000000    -0.0809504  
C150     C      0.247820000000     0.418410000000     0.285330000000     0.071095   
C151     C      0.299550000000     0.454710000000     0.268140000000     0.0713295  
C152     C      0.277520000000     0.477330000000     0.245750000000    -0.0810388  
C153     C      0.979380000000     0.278310000000     0.763880000000    -0.0809676  
C154     C      0.964560000000     0.248660000000     0.743390000000     0.0365029  
C155     C      0.926690000000     0.241960000000     0.745810000000    -0.0810454  
C156     C      0.904700000000     0.264440000000     0.768380000000     0.0713169  
C157     C      0.956550000000     0.300310000000     0.786090000000     0.0711066  
C158     C      0.988440000000     0.224780000000     0.719720000000     0.0364319  
C159     C      0.017350000000     0.240280000000     0.699130000000    -0.0808743  
C160     C      0.039490000000     0.217400000000     0.677080000000     0.0710808  
C161     C      0.005160000000     0.164170000000     0.695090000000     0.0713195  
C162     C      0.982570000000     0.186200000000     0.717490000000    -0.0809858  
C163     C      0.719560000000     0.183760000000     0.994320000000    -0.0809949  
C164     C      0.714390000000     0.222500000000     0.993470000000     0.0364591  
C165     C      0.686330000000     0.237890000000     0.015290000000    -0.0808995  
C166     C      0.664330000000     0.214760000000     0.037220000000     0.0710764  
C167     C      0.697130000000     0.161470000000     0.016640000000     0.0712171  
C168     C      0.738160000000     0.246690000000     0.969990000000     0.036472   
C169     C      0.775830000000     0.239390000000     0.966440000000    -0.0810253  
C170     C      0.797720000000     0.262260000000     0.944170000000     0.0713225  
C171     C      0.746150000000     0.299640000000     0.928890000000     0.0711169  
C172     C      0.723420000000     0.277290000000     0.950860000000    -0.0809395  
C173     C      0.723460000000     0.503570000000     0.682540000000    -0.0809657  
C174     C      0.714920000000     0.497750000000     0.720050000000     0.0365142  
C175     C      0.683330000000     0.514750000000     0.734520000000    -0.080887   
C176     C      0.661220000000     0.536880000000     0.711720000000     0.0711667  
C177     C      0.700670000000     0.525780000000     0.660500000000     0.0713425  
C178     C      0.738770000000     0.474020000000     0.743910000000     0.0364627  
C179     C      0.754700000000     0.441310000000     0.729930000000    -0.0808383  
C180     C      0.776960000000     0.419320000000     0.752710000000     0.0710273  
C181     C      0.768090000000     0.461080000000     0.802980000000     0.0714088  
C182     C      0.745780000000     0.483780000000     0.780940000000    -0.0809462  
C183     C      0.979310000000     0.502830000000     0.032530000000    -0.0809712  
C184     C      0.987480000000     0.497270000000     0.994890000000     0.0364813  
C185     C      0.018920000000     0.514390000000     0.980230000000    -0.0808669  
C186     C      0.041240000000     0.536380000000     0.002960000000     0.0711374  
C187     C      0.002300000000     0.524900000000     0.054490000000     0.07135    
C188     C      0.963430000000     0.473700000000     0.971090000000     0.0364863  
C189     C      0.947660000000     0.440860000000     0.984960000000    -0.0808893  
C190     C      0.925310000000     0.418970000000     0.962170000000     0.0710884  
C191     C      0.933720000000     0.461110000000     0.912140000000     0.0714363  
C192     C      0.956110000000     0.483720000000     0.934190000000    -0.0809666  
Cd1      Cd     0.851080000000     0.360540000000     0.857370000000     0.509655   
Cd2      Cd     0.102360000000     0.608640000000     0.107820000000     0.509797   
Cd3      Cd     0.350460000000     0.859340000000     0.856440000000     0.509642   
Cd4      Cd     0.602510000000     0.107490000000     0.105970000000     0.509798   
Cd5      Cd     0.353300000000     0.357850000000     0.356280000000     0.509676   
Cd6      Cd     0.601210000000     0.609790000000     0.606620000000     0.509762   
Cd7      Cd     0.852610000000     0.859050000000     0.357520000000     0.509644   
Cd8      Cd     0.101380000000     0.110850000000     0.607160000000     0.509762   
H1       H      0.915200000000     0.003910000000     0.480450000000     0.0561292  
H2       H      0.877110000000     0.964840000000     0.441210000000     0.03558    
H3       H      0.969200000000     0.894580000000     0.417590000000     0.0352142  
H4       H      0.008350000000     0.933570000000     0.455860000000     0.0561064  
H5       H      0.019740000000     0.950650000000     0.519400000000     0.0560901  
H6       H      0.058480000000     0.990430000000     0.557300000000     0.0352653  
H7       H      0.003040000000     0.087220000000     0.516190000000     0.0356313  
H8       H      0.964460000000     0.048410000000     0.477200000000     0.0560826  
H9       H      0.676290000000     0.709160000000     0.450660000000     0.056123   
H10      H      0.637750000000     0.670230000000     0.489580000000     0.0355208  
H11      H      0.707790000000     0.691030000000     0.582710000000     0.0355445  
H12      H      0.747510000000     0.729370000000     0.544390000000     0.056151   
H13      H      0.749400000000     0.788280000000     0.512570000000     0.0560938  
H14      H      0.788750000000     0.826330000000     0.473590000000     0.0354203  
H15      H      0.774480000000     0.750010000000     0.383410000000     0.035671   
H16      H      0.735790000000     0.710750000000     0.421860000000     0.0561226  
H17      H      0.253250000000     0.285790000000     0.512790000000     0.0561395  
H18      H      0.292520000000     0.323610000000     0.473540000000     0.0354549  
H19      H      0.273430000000     0.249980000000     0.382070000000     0.0356244  
H20      H      0.234740000000     0.210940000000     0.420760000000     0.0561398  
H21      H      0.176000000000     0.210590000000     0.451180000000     0.0561325  
H22      H      0.137150000000     0.172240000000     0.490350000000     0.0355833  
H23      H      0.210250000000     0.188570000000     0.581940000000     0.035487   
H24      H      0.250290000000     0.226270000000     0.543330000000     0.05612    
H25      H      0.462980000000     0.547060000000     0.478300000000     0.0560995  
H26      H      0.501340000000     0.585810000000     0.517540000000     0.0355837  
H27      H      0.561570000000     0.489750000000     0.553070000000     0.0352669  
H28      H      0.523110000000     0.449960000000     0.514880000000     0.0560647  
H29      H      0.510020000000     0.434730000000     0.451210000000     0.0560697  
H30      H      0.470860000000     0.395680000000     0.412990000000     0.0352245  
H31      H      0.377350000000     0.461690000000     0.442390000000     0.0355973  
H32      H      0.415460000000     0.500720000000     0.481610000000     0.0560935  
H33      H      0.790100000000     0.999360000000     0.229470000000     0.0560815  
H34      H      0.828410000000     0.960960000000     0.269130000000     0.035655   
H35      H      0.734820000000     0.896220000000     0.300980000000     0.035218   
H36      H      0.695490000000     0.934660000000     0.262360000000     0.056099   
H37      H      0.681730000000     0.948700000000     0.198540000000     0.0560638  
H38      H      0.642850000000     0.988030000000     0.160310000000     0.0352137  
H39      H      0.704090000000     0.084370000000     0.193250000000     0.0355768  
H40      H      0.742890000000     0.046090000000     0.232510000000     0.0561147  
H41      H      0.455970000000     0.286390000000     0.201200000000     0.056108   
H42      H      0.417100000000     0.324790000000     0.240310000000     0.0354863  
H43      H      0.429600000000     0.247460000000     0.329900000000     0.0355902  
H44      H      0.467800000000     0.207840000000     0.291290000000     0.0561312  
H45      H      0.527410000000     0.205450000000     0.262790000000     0.0561507  
H46      H      0.565680000000     0.166470000000     0.223650000000     0.0354973  
H47      H      0.496560000000     0.189420000000     0.130320000000     0.0355342  
H48      H      0.457100000000     0.227820000000     0.168840000000     0.0561362  
H49      H      0.244830000000     0.929610000000     0.702810000000     0.0561275  
H50      H      0.283700000000     0.891020000000     0.741740000000     0.035478   
H51      H      0.276400000000     0.971120000000     0.829490000000     0.0356145  
H52      H      0.238280000000     0.010910000000     0.791010000000     0.0561401  
H53      H      0.177950000000     0.014580000000     0.764260000000     0.0561593  
H54      H      0.139840000000     0.053850000000     0.725250000000     0.0355081  
H55      H      0.205340000000     0.026090000000     0.630560000000     0.0355359  
H56      H      0.244630000000     0.987330000000     0.668900000000     0.0560939  
H57      H      0.507710000000     0.783370000000     0.761820000000     0.0560666  
H58      H      0.468270000000     0.822030000000     0.800100000000     0.0352371  
H59      H      0.374860000000     0.756790000000     0.768770000000     0.0356617  
H60      H      0.413280000000     0.718130000000     0.729450000000     0.0560558  
H61      H      0.460670000000     0.671560000000     0.732870000000     0.0561261  
H62      H      0.499630000000     0.633100000000     0.693920000000     0.0355965  
H63      H      0.560490000000     0.729420000000     0.660190000000     0.0352534  
H64      H      0.521470000000     0.768900000000     0.698100000000     0.0560762  
H65      H      0.468930000000     0.006440000000     0.920470000000     0.0561498  
H66      H      0.430100000000     0.967360000000     0.881980000000     0.0356691  
H67      H      0.412990000000     0.892700000000     0.973020000000     0.0354275  
H68      H      0.452430000000     0.930570000000     0.012070000000     0.0561295  
H69      H      0.454950000000     0.989880000000     0.043050000000     0.0560625  
H70      H      0.494820000000     0.027970000000     0.081460000000     0.0355448  
H71      H      0.566690000000     0.046020000000     0.989200000000     0.0355285  
H72      H      0.528010000000     0.007300000000     0.950210000000     0.0561249  
H73      H      0.966510000000     0.708620000000     0.292480000000     0.0561343  
H74      H      0.928230000000     0.748230000000     0.331000000000     0.0356398  
H75      H      0.918200000000     0.826950000000     0.242290000000     0.0354769  
H76      H      0.957180000000     0.788540000000     0.203300000000     0.0561038  
H77      H      0.957870000000     0.730360000000     0.170190000000     0.0561182  
H78      H      0.997280000000     0.691820000000     0.131740000000     0.0355157  
H79      H      0.064750000000     0.666640000000     0.225740000000     0.0355047  
H80      H      0.026520000000     0.705720000000     0.264830000000     0.056134   
H81      H      0.288270000000     0.715470000000     0.980650000000     0.0560778  
H82      H      0.326230000000     0.754300000000     0.941070000000     0.0355963  
H83      H      0.233810000000     0.823750000000     0.916390000000     0.0352164  
H84      H      0.194770000000     0.784960000000     0.955000000000     0.0560806  
H85      H      0.183270000000     0.768490000000     0.018680000000     0.0560964  
H86      H      0.144690000000     0.728870000000     0.056920000000     0.0352914  
H87      H      0.200900000000     0.632010000000     0.017070000000     0.035621   
H88      H      0.239320000000     0.670640000000     0.977750000000     0.0560988  
H89      H      0.242870000000     0.546360000000     0.233860000000     0.0561156  
H90      H      0.203950000000     0.584960000000     0.195020000000     0.035542   
H91      H      0.142980000000     0.488790000000     0.161070000000     0.0352708  
H92      H      0.181970000000     0.449170000000     0.198870000000     0.0560618  
H93      H      0.195810000000     0.434480000000     0.262520000000     0.0561141  
H94      H      0.235300000000     0.395630000000     0.300580000000     0.035238   
H95      H      0.328690000000     0.460960000000     0.269350000000     0.0356109  
H96      H      0.290220000000     0.499790000000     0.230260000000     0.0560889  
H97      H      0.913920000000     0.219740000000     0.730040000000     0.0560884  
H98      H      0.875530000000     0.258330000000     0.769430000000     0.0356379  
H99      H      0.969130000000     0.322870000000     0.801620000000     0.0352203  
H100     H      0.008550000000     0.284230000000     0.763280000000     0.0561235  
H101     H      0.022620000000     0.270010000000     0.699580000000     0.0560826  
H102     H      0.061480000000     0.230510000000     0.661500000000     0.0352598  
H103     H      0.999710000000     0.134440000000     0.694220000000     0.0355373  
H104     H      0.960930000000     0.172890000000     0.733330000000     0.0560851  
H105     H      0.681640000000     0.267720000000     0.015920000000     0.0560743  
H106     H      0.643020000000     0.227800000000     0.053790000000     0.0352756  
H107     H      0.702010000000     0.131630000000     0.016450000000     0.0356235  
H108     H      0.740520000000     0.170560000000     0.977500000000     0.056103   
H109     H      0.788540000000     0.216400000000     0.981140000000     0.0560877  
H110     H      0.826740000000     0.255670000000     0.942230000000     0.0355923  
H111     H      0.733640000000     0.322950000000     0.914450000000     0.0352202  
H112     H      0.694380000000     0.283710000000     0.952360000000     0.0560883  
H113     H      0.675340000000     0.510620000000     0.763200000000     0.0561321  
H114     H      0.636970000000     0.549420000000     0.723980000000     0.0354955  
H115     H      0.708310000000     0.529640000000     0.631650000000     0.0355409  
H116     H      0.747870000000     0.491460000000     0.670270000000     0.0561219  
H117     H      0.749650000000     0.432360000000     0.701660000000     0.0561057  
H118     H      0.788650000000     0.394190000000     0.740840000000     0.0354938  
H119     H      0.772870000000     0.469680000000     0.831450000000     0.0356081  
H120     H      0.734490000000     0.509070000000     0.792800000000     0.0561334  
H121     H      0.026640000000     0.510460000000     0.951450000000     0.0561412  
H122     H      0.065360000000     0.549020000000     0.990530000000     0.0355552  
H123     H      0.994960000000     0.528550000000     0.083450000000     0.0354902  
H124     H      0.955040000000     0.490600000000     0.044960000000     0.0561206  
H125     H      0.952940000000     0.431720000000     0.013120000000     0.0561402  
H126     H      0.913770000000     0.393700000000     0.973940000000     0.0354744  
H127     H      0.928730000000     0.469900000000     0.883770000000     0.0355921  
H128     H      0.967240000000     0.509130000000     0.922430000000     0.0561346  
N1       N      0.920390000000     0.926930000000     0.426570000000    -0.179032   
N2       N      0.033530000000     0.041650000000     0.539520000000    -0.17893    
N3       N      0.669960000000     0.677840000000     0.538920000000    -0.178747   
N4       N      0.784410000000     0.790960000000     0.425710000000    -0.178708   
N5       N      0.285740000000     0.289590000000     0.424980000000    -0.178728   
N6       N      0.170850000000     0.177680000000     0.538950000000    -0.17877    
N7       N      0.534200000000     0.540600000000     0.538120000000    -0.178987   
N8       N      0.421330000000     0.425900000000     0.424870000000    -0.178967   
N9       N      0.784400000000     0.925860000000     0.287920000000    -0.178967   
N10      N      0.670680000000     0.038990000000     0.173990000000    -0.179034   
N11      N      0.420600000000     0.288940000000     0.287910000000    -0.178762   
N12      N      0.533930000000     0.175180000000     0.174180000000    -0.17874    
N13      N      0.282810000000     0.928240000000     0.788410000000    -0.178749   
N14      N      0.169790000000     0.042760000000     0.675110000000    -0.178737   
N15      N      0.418770000000     0.792160000000     0.787270000000    -0.178922   
N16      N      0.532860000000     0.678460000000     0.674280000000    -0.179007   
N17      N      0.418750000000     0.927250000000     0.924700000000    -0.178669   
N18      N      0.533580000000     0.039770000000     0.038110000000    -0.178776   
N19      N      0.920440000000     0.790400000000     0.289440000000    -0.178713   
N20      N      0.033820000000     0.676460000000     0.175950000000    -0.178748   
N21      N      0.282770000000     0.791790000000     0.925880000000    -0.178986   
N22      N      0.170030000000     0.677630000000     0.039790000000    -0.17892    
N23      N      0.170660000000     0.539690000000     0.175280000000    -0.179003   
N24      N      0.284790000000     0.425520000000     0.287770000000    -0.179004   
N25      N      0.919540000000     0.293350000000     0.788360000000    -0.178937   
N26      N      0.033380000000     0.179670000000     0.675070000000    -0.179051   
N27      N      0.669760000000     0.176880000000     0.037910000000    -0.178971   
N28      N      0.782970000000     0.292120000000     0.925550000000    -0.179044   
N29      N      0.669820000000     0.542290000000     0.675010000000    -0.178785   
N30      N      0.783530000000     0.429130000000     0.788950000000    -0.178683   
N31      N      0.033000000000     0.541530000000     0.039790000000    -0.178779   
N32      N      0.918500000000     0.428990000000     0.926030000000    -0.178759   
O1       O      0.811450000000     0.414910000000     0.844720000000    -0.246428   
O2       O      0.838780000000     0.307700000000     0.899450000000    -0.247732   
O3       O      0.890410000000     0.415020000000     0.870290000000    -0.246559   
O4       O      0.910130000000     0.342300000000     0.828880000000    -0.250483   
O5       O      0.863440000000     0.308950000000     0.813820000000    -0.247121   
O6       O      0.881790000000     0.377490000000     0.915990000000    -0.249319   
O7       O      0.820450000000     0.377750000000     0.798790000000    -0.248998   
O8       O      0.792350000000     0.342270000000     0.886520000000    -0.250625   
O9       O      0.152200000000     0.620420000000     0.062940000000    -0.247448   
O10      O      0.153620000000     0.596680000000     0.151000000000    -0.248134   
O11      O      0.083470000000     0.579370000000     0.048920000000    -0.24857    
O12      O      0.050060000000     0.650750000000     0.119530000000    -0.247021   
O13      O      0.083190000000     0.637080000000     0.167020000000    -0.248884   
O14      O      0.048930000000     0.567980000000     0.095960000000    -0.247206   
O15      O      0.123010000000     0.668860000000     0.081880000000    -0.250081   
O16      O      0.122180000000     0.548640000000     0.134950000000    -0.250295   
O17      O      0.317680000000     0.875490000000     0.798710000000    -0.249035   
O18      O      0.409360000000     0.841240000000     0.827610000000    -0.250479   
O19      O      0.292140000000     0.842070000000     0.887000000000    -0.250941   
O20      O      0.381130000000     0.876340000000     0.915050000000    -0.249181   
O21      O      0.390770000000     0.913140000000     0.868940000000    -0.245702   
O22      O      0.338180000000     0.806420000000     0.898390000000    -0.247743   
O23      O      0.312730000000     0.914950000000     0.843330000000    -0.246698   
O24      O      0.362730000000     0.807640000000     0.812940000000    -0.247015   
O25      O      0.584260000000     0.077310000000     0.047300000000    -0.248784   
O26      O      0.583730000000     0.136410000000     0.165060000000    -0.248937   
O27      O      0.652730000000     0.119640000000     0.061590000000    -0.247479   
O28      O      0.622200000000     0.047680000000     0.133600000000    -0.250476   
O29      O      0.653780000000     0.095780000000     0.149180000000    -0.247993   
O30      O      0.622210000000     0.167710000000     0.079290000000    -0.250122   
O31      O      0.548980000000     0.067040000000     0.094030000000    -0.247195   
O32      O      0.549810000000     0.149030000000     0.117860000000    -0.246786   
O33      O      0.384580000000     0.340940000000     0.297950000000    -0.249073   
O34      O      0.323510000000     0.340350000000     0.415210000000    -0.249069   
O35      O      0.294280000000     0.376210000000     0.327820000000    -0.25037    
O36      O      0.412100000000     0.376190000000     0.385230000000    -0.25064    
O37      O      0.365480000000     0.410230000000     0.398910000000    -0.247572   
O38      O      0.340890000000     0.409840000000     0.313180000000    -0.247323   
O39      O      0.392040000000     0.302880000000     0.343420000000    -0.246774   
O40      O      0.312950000000     0.304070000000     0.368920000000    -0.246176   
O41      O      0.549970000000     0.621550000000     0.649880000000    -0.247775   
O42      O      0.581940000000     0.549690000000     0.579310000000    -0.250209   
O43      O      0.619430000000     0.580170000000     0.665580000000    -0.248909   
O44      O      0.654210000000     0.651040000000     0.594970000000    -0.246872   
O45      O      0.619840000000     0.639470000000     0.547840000000    -0.248927   
O46      O      0.654470000000     0.569080000000     0.618840000000    -0.246982   
O47      O      0.581340000000     0.669670000000     0.633920000000    -0.25027    
O48      O      0.550810000000     0.597680000000     0.562470000000    -0.247639   
O49      O      0.840400000000     0.910470000000     0.313720000000    -0.246849   
O50      O      0.864990000000     0.912300000000     0.399070000000    -0.24776    
O51      O      0.891070000000     0.803900000000     0.344620000000    -0.24631    
O52      O      0.813000000000     0.804770000000     0.370200000000    -0.246173   
O53      O      0.821280000000     0.842400000000     0.415900000000    -0.249311   
O54      O      0.884830000000     0.842670000000     0.299560000000    -0.249008   
O55      O      0.793710000000     0.877060000000     0.328630000000    -0.250565   
O56      O      0.910890000000     0.876310000000     0.388170000000    -0.250883   
O57      O      0.121000000000     0.082920000000     0.666440000000    -0.248997   
O58      O      0.119640000000     0.140980000000     0.548470000000    -0.248555   
O59      O      0.050060000000     0.122820000000     0.650250000000    -0.248306   
O60      O      0.080460000000     0.050550000000     0.581680000000    -0.249863   
O61      O      0.051650000000     0.098990000000     0.562140000000    -0.24718    
O62      O      0.081940000000     0.170770000000     0.634820000000    -0.250446   
O63      O      0.153130000000     0.068000000000     0.618610000000    -0.246701   
O64      O      0.155510000000     0.150420000000     0.594900000000    -0.247508   


