data_structure

_audit_creation_method RASPA-1.0
_audit_creation_date 2023-6-5
_audit_author_name 'Poobodin Mano'

_cell_length_a    44.4253
_cell_length_b    44.5489
_cell_length_c    24.8425
_cell_angle_alpha 90.0445
_cell_angle_beta  89.8702
_cell_angle_gamma 90.0001
_cell_volume      49165.6

_symmetry_cell_setting          triclinic
_symmetry_space_group_name_Hall 'P 1'
_symmetry_space_group_name_H-M  'P 1'
_symmetry_Int_Tables_number     1

_symmetry_equiv_pos_as_xyz 'x,y,z'

loop_
_atom_site_label
_atom_site_type_symbol
_atom_site_fract_x
_atom_site_fract_y
_atom_site_fract_z
_atom_site_charge
C1       C      0.393460000000     0.320820000000     0.999590000000     0.356169   
C2       C      0.298530000000     0.301050000000     0.089110000000     0.357068   
C3       C      0.324660000000     0.392110000000     0.989540000000     0.347408   
C4       C      0.299640000000     0.296310000000     0.908940000000     0.356844   
C5       C      0.333430000000     0.612470000000     0.963000000000     0.35841    
C6       C      0.311600000000     0.706400000000     0.045610000000     0.34592    
C7       C      0.404450000000     0.686620000000     0.954740000000     0.35589    
C8       C      0.312310000000     0.703870000000     0.861000000000     0.349275   
C9       C      0.707940000000     0.309870000000     0.878460000000     0.347593   
C10      C      0.614430000000     0.327030000000     0.985400000000     0.349985   
C11      C      0.703480000000     0.310290000000     0.068040000000     0.354131   
C12      C      0.688910000000     0.399970000000     0.958980000000     0.353262   
C13      C      0.699750000000     0.619870000000     0.947200000000     0.346598   
C14      C      0.716250000000     0.715210000000     0.855110000000     0.349464   
C15      C      0.625400000000     0.692170000000     0.942660000000     0.34757    
C16      C      0.721150000000     0.710410000000     0.036770000000     0.355806   
C17      C      0.803060000000     0.216010000000     0.562550000000     0.35536    
C18      C      0.819910000000     0.122050000000     0.454470000000     0.356181   
C19      C      0.799260000000     0.213920000000     0.380390000000     0.347803   
C20      C      0.893770000000     0.191570000000     0.482330000000     0.345973   
C21      C      0.901410000000     0.828480000000     0.455980000000     0.357809   
C22      C      0.808520000000     0.814070000000     0.541200000000     0.356114   
C23      C      0.828210000000     0.901960000000     0.438190000000     0.347469   
C24      C      0.814350000000     0.807480000000     0.350800000000     0.35006    
C25      C      0.122520000000     0.819670000000     0.459090000000     0.34773    
C26      C      0.215440000000     0.797930000000     0.363220000000     0.356824   
C27      C      0.192130000000     0.891000000000     0.458120000000     0.355771   
C28      C      0.217560000000     0.797150000000     0.544610000000     0.355358   
C29      C      0.205450000000     0.204710000000     0.404750000000     0.347664   
C30      C      0.188090000000     0.111190000000     0.488350000000     0.348817   
C31      C      0.205410000000     0.201560000000     0.592990000000     0.347685   
C32      C      0.114550000000     0.183980000000     0.499930000000     0.356177   
C33      C      0.183080000000     0.939460000000     0.418570000000     0.242219   
C34      C      0.205740000000     0.935380000000     0.504750000000     0.0818135  
C35      C      0.183560000000     0.970810000000     0.422660000000    -0.153721   
C36      C      0.199980000000     0.036690000000     0.429670000000    -0.0747163  
C37      C      0.206760000000     0.966580000000     0.509610000000    -0.099552   
C38      C      0.194790000000     0.018030000000     0.474170000000     0.0249024  
C39      C      0.195290000000     0.984750000000     0.468580000000     0.0685345  
C40      C      0.198020000000     0.067840000000     0.435250000000     0.0695075  
C41      C      0.186720000000     0.062700000000     0.528100000000     0.0699142  
C42      C      0.188330000000     0.031490000000     0.523900000000    -0.0747803  
C43      C      0.948920000000     0.841800000000     0.495710000000     0.24289    
C44      C      0.946510000000     0.805260000000     0.426170000000     0.0818448  
C45      C      0.980270000000     0.838890000000     0.497430000000    -0.153768   
C46      C      0.045100000000     0.819320000000     0.509910000000    -0.0746774  
C47      C      0.977770000000     0.802000000000     0.426980000000    -0.0998778  
C48      C      0.028590000000     0.817320000000     0.462010000000     0.0251621  
C49      C      0.995120000000     0.819140000000     0.462520000000     0.0686962  
C50      C      0.076540000000     0.819580000000     0.508300000000     0.0703415  
C51      C      0.075850000000     0.814960000000     0.413230000000     0.0707023  
C52      C      0.044410000000     0.814760000000     0.413350000000    -0.0749191  
C53      C      0.802470000000     0.074110000000     0.486440000000     0.241964   
C54      C      0.830330000000     0.077750000000     0.405010000000     0.0812493  
C55      C      0.802440000000     0.042750000000     0.482190000000    -0.15315    
C56      C      0.795290000000     0.976890000000     0.453780000000    -0.0740253  
C57      C      0.830290000000     0.046590000000     0.399450000000    -0.10005    
C58      C      0.819000000000     0.995240000000     0.436150000000     0.0251302  
C59      C      0.816830000000     0.028580000000     0.438880000000     0.0684406  
C60      C      0.798580000000     0.945670000000     0.453650000000     0.0700021  
C61      C      0.847820000000     0.950190000000     0.417610000000     0.0701483  
C62      C      0.845400000000     0.981410000000     0.417570000000    -0.0748535  
C63      C      0.070120000000     0.212930000000     0.480290000000     0.242519   
C64      C      0.066170000000     0.164380000000     0.519180000000     0.0818831  
C65      C      0.038670000000     0.215360000000     0.479370000000    -0.153953   
C66      C      0.973060000000     0.204430000000     0.449240000000    -0.0746291  
C67      C      0.034850000000     0.166230000000     0.518720000000    -0.100315   
C68      C      0.987350000000     0.193430000000     0.495400000000     0.0244509  
C69      C      0.020700000000     0.191810000000     0.498290000000     0.0687829  
C70      C      0.941690000000     0.204080000000     0.445850000000     0.0692698  
C71      C      0.938160000000     0.183090000000     0.533340000000     0.0690509  
C72      C      0.969480000000     0.182980000000     0.537970000000    -0.0748603  
C73      C      0.764190000000     0.802530000000     0.593190000000     0.242387   
C74      C      0.812660000000     0.788260000000     0.624160000000     0.0823475  
C75      C      0.750970000000     0.789170000000     0.638480000000    -0.15322    
C76      C      0.730300000000     0.771800000000     0.751100000000    -0.0746177  
C77      C      0.800070000000     0.774710000000     0.669490000000    -0.0995324  
C78      C      0.755030000000     0.759340000000     0.723980000000     0.0255221  
C79      C      0.768850000000     0.774770000000     0.676930000000     0.0685206  
C80      C      0.717560000000     0.756740000000     0.794930000000     0.0710472  
C81      C      0.753130000000     0.717370000000     0.785860000000     0.0711941  
C82      C      0.766370000000     0.731770000000     0.741920000000    -0.0753831  
C83      C      0.761860000000     0.739470000000     0.073690000000     0.242055   
C84      C      0.723430000000     0.720060000000     0.130500000000     0.0817741  
C85      C      0.775590000000     0.753180000000     0.118050000000    -0.153868   
C86      C      0.787880000000     0.794490000000     0.213280000000    -0.0751124  
C87      C      0.736860000000     0.733200000000     0.175450000000    -0.100132   
C88      C      0.777280000000     0.764940000000     0.216720000000     0.0248472  
C89      C      0.763130000000     0.750170000000     0.169510000000     0.0683853  
C90      C      0.800410000000     0.808330000000     0.258450000000     0.069942   
C91      C      0.792790000000     0.764230000000     0.310110000000     0.0697433  
C92      C      0.779960000000     0.749780000000     0.265840000000    -0.0758422  
C93      C      0.784250000000     0.260440000000     0.606400000000     0.242096   
C94      C      0.783830000000     0.213410000000     0.651430000000     0.0819092  
C95      C      0.770740000000     0.274050000000     0.651180000000    -0.153936   
C96      C      0.725250000000     0.290990000000     0.738350000000    -0.0751491  
C97      C      0.770780000000     0.226500000000     0.696860000000    -0.0999783  
C98      C      0.749510000000     0.271250000000     0.744570000000     0.0246937  
C99      C      0.763930000000     0.257110000000     0.696980000000     0.0684944  
C100     C      0.711570000000     0.303690000000     0.783620000000     0.0693585  
C101     C      0.745680000000     0.278250000000     0.841010000000     0.0693534  
C102     C      0.759700000000     0.264920000000     0.796640000000    -0.07578    
C103     C      0.734150000000     0.314110000000     0.147490000000     0.242403   
C104     C      0.710670000000     0.267970000000     0.124380000000     0.0816603  
C105     C      0.747170000000     0.300630000000     0.192670000000    -0.153862   
C106     C      0.786880000000     0.262280000000     0.263550000000    -0.0745569  
C107     C      0.723550000000     0.253940000000     0.168960000000    -0.0999972  
C108     C      0.757030000000     0.255440000000     0.250230000000     0.0250529  
C109     C      0.742250000000     0.270200000000     0.203570000000     0.0687365  
C110     C      0.800600000000     0.248190000000     0.307220000000     0.070742   
C111     C      0.756090000000     0.220540000000     0.325070000000     0.0703593  
C112     C      0.741640000000     0.234240000000     0.281610000000    -0.0745759  
C113     C      0.676660000000     0.447210000000     0.917760000000     0.242309   
C114     C      0.713470000000     0.444630000000     0.986830000000     0.0814558  
C115     C      0.680020000000     0.478400000000     0.915410000000    -0.153926   
C116     C      0.702110000000     0.542100000000     0.900100000000    -0.0750785  
C117     C      0.717270000000     0.475740000000     0.985260000000    -0.0996716  
C118     C      0.702760000000     0.526320000000     0.948830000000     0.0248196  
C119     C      0.700270000000     0.493050000000     0.949560000000     0.0686178  
C120     C      0.701970000000     0.573430000000     0.900270000000     0.0695643  
C121     C      0.704130000000     0.574040000000     0.995630000000     0.069213   
C122     C      0.704350000000     0.542680000000     0.996930000000    -0.0746479  
C123     C      0.260320000000     0.792070000000     0.603230000000     0.242583   
C124     C      0.216900000000     0.761720000000     0.615760000000     0.0822303  
C125     C      0.273850000000     0.778800000000     0.648150000000    -0.153711   
C126     C      0.288790000000     0.760230000000     0.762530000000    -0.0750487  
C127     C      0.229980000000     0.747980000000     0.660450000000    -0.0995941  
C128     C      0.272760000000     0.742690000000     0.725580000000     0.0250327  
C129     C      0.258710000000     0.756600000000     0.677400000000     0.0686227  
C130     C      0.301830000000     0.746880000000     0.807650000000     0.0699711  
C131     C      0.283640000000     0.699160000000     0.780660000000     0.0700779  
C132     C      0.270240000000     0.711790000000     0.735170000000    -0.0752211  
C133     C      0.220750000000     0.756270000000     0.302200000000     0.242368   
C134     C      0.250040000000     0.800420000000     0.290610000000     0.0817253  
C135     C      0.234490000000     0.743360000000     0.257010000000    -0.154066   
C136     C      0.253810000000     0.729230000000     0.142550000000    -0.074453   
C137     C      0.264020000000     0.788100000000     0.245330000000    -0.100364   
C138     C      0.270770000000     0.745810000000     0.179620000000     0.0247719  
C139     C      0.256270000000     0.759270000000     0.227920000000     0.068822   
C140     C      0.267800000000     0.716410000000     0.097730000000     0.070168   
C141     C      0.314970000000     0.736070000000     0.125010000000     0.0698511  
C142     C      0.301690000000     0.749260000000     0.170230000000    -0.074741   
C143     C      0.452160000000     0.688220000000     0.000360000000     0.24214    
C144     C      0.449380000000     0.695810000000     0.905860000000     0.0816905  
C145     C      0.483580000000     0.690550000000     0.998170000000    -0.153826   
C146     C      0.548620000000     0.711200000000     0.984480000000    -0.0747184  
C147     C      0.480650000000     0.698180000000     0.902560000000    -0.100396   
C148     C      0.531570000000     0.695960000000     0.945740000000     0.0246984  
C149     C      0.498180000000     0.695240000000     0.948920000000     0.068595   
C150     C      0.580050000000     0.710310000000     0.982160000000     0.0695183  
C151     C      0.578140000000     0.679950000000     0.903790000000     0.0695211  
C152     C      0.546730000000     0.680540000000     0.904690000000    -0.0748504  
C153     C      0.292930000000     0.252630000000     0.853120000000     0.242708   
C154     C      0.265580000000     0.297370000000     0.835730000000     0.0825728  
C155     C      0.279060000000     0.238660000000     0.809140000000    -0.153506   
C156     C      0.260800000000     0.220630000000     0.696360000000    -0.0744764  
C157     C      0.251730000000     0.284110000000     0.791330000000    -0.0995665  
C158     C      0.244270000000     0.240120000000     0.729460000000     0.0249876  
C159     C      0.258420000000     0.254420000000     0.777350000000     0.0688498  
C160     C      0.247370000000     0.207760000000     0.651130000000     0.0698606  
C161     C      0.201580000000     0.233010000000     0.670110000000     0.0698635  
C162     C      0.214250000000     0.246110000000     0.715880000000    -0.0742724  
C163     C      0.256310000000     0.296920000000     0.149690000000     0.242851   
C164     C      0.299630000000     0.266360000000     0.161240000000     0.0829223  
C165     C      0.242690000000     0.283300000000     0.194390000000    -0.153305   
C166     C      0.213620000000     0.238120000000     0.270830000000    -0.0750248  
C167     C      0.286720000000     0.252670000000     0.206160000000    -0.100038   
C168     C      0.243970000000     0.246650000000     0.271130000000     0.0251056  
C169     C      0.257940000000     0.261060000000     0.223280000000     0.0687634  
C170     C      0.201080000000     0.224100000000     0.315900000000     0.0704398  
C171     C      0.247700000000     0.227130000000     0.361850000000     0.0699342  
C172     C      0.261000000000     0.241040000000     0.317440000000    -0.0754395  
C173     C      0.440440000000     0.322530000000     0.047450000000     0.24232    
C174     C      0.439570000000     0.313410000000     0.953240000000     0.0816301  
C175     C      0.471950000000     0.322200000000     0.046800000000    -0.153928   
C176     C      0.536600000000     0.340610000000     0.027170000000    -0.0746023  
C177     C      0.470970000000     0.312910000000     0.951510000000    -0.0998269  
C178     C      0.521030000000     0.319120000000     0.996850000000     0.0252727  
C179     C      0.487590000000     0.317740000000     0.998490000000     0.068609   
C180     C      0.567890000000     0.342570000000     0.023540000000     0.0711285  
C181     C      0.568980000000     0.302220000000     0.961280000000     0.0704713  
C182     C      0.537670000000     0.299610000000     0.963990000000    -0.0751349  
C183     C      0.310950000000     0.568620000000     0.002970000000     0.242945   
C184     C      0.348320000000     0.563840000000     0.934980000000     0.082704   
C185     C      0.308680000000     0.537310000000     0.006420000000    -0.153319   
C186     C      0.321570000000     0.471440000000     0.028010000000    -0.074107   
C187     C      0.346700000000     0.532620000000     0.937960000000    -0.0997114  
C188     C      0.325010000000     0.485620000000     0.977990000000     0.0252198  
C189     C      0.326730000000     0.518910000000     0.973980000000     0.0689954  
C190     C      0.321020000000     0.440120000000     0.031100000000     0.0705004  
C191     C      0.326820000000     0.436410000000     0.936440000000     0.0701968  
C192     C      0.327350000000     0.467630000000     0.931860000000    -0.0746138  
Cd1      Cd     0.328620000000     0.327430000000     0.997080000000     0.512574   
Cd2      Cd     0.339990000000     0.677180000000     0.954890000000     0.511243   
Cd3      Cd     0.678430000000     0.336190000000     0.971470000000     0.510838   
Cd4      Cd     0.690130000000     0.684210000000     0.945700000000     0.510331   
Cd5      Cd     0.829150000000     0.185840000000     0.470220000000     0.511474   
Cd6      Cd     0.837290000000     0.837740000000     0.445460000000     0.511061   
Cd7      Cd     0.187260000000     0.826120000000     0.455650000000     0.51212    
Cd8      Cd     0.179060000000     0.175360000000     0.497330000000     0.510403   
H1       H      0.201920000000     0.081460000000     0.399750000000     0.036303   
H2       H      0.214680000000     0.922310000000     0.537880000000     0.0364714  
H3       H      0.183780000000     0.018030000000     0.559280000000     0.0556976  
H4       H      0.216570000000     0.976340000000     0.545450000000     0.0620762  
H5       H      0.205570000000     0.027350000000     0.390660000000     0.0550759  
H6       H      0.174120000000     0.984030000000     0.390250000000     0.0848786  
H7       H      0.181290000000     0.072160000000     0.567170000000     0.0373118  
H8       H      0.188210000000     0.924960000000     0.347500000000     0.16144    
H9       H      0.088450000000     0.821510000000     0.546190000000     0.0376069  
H10      H      0.934090000000     0.791610000000     0.397690000000     0.0337033  
H11      H      0.032660000000     0.813510000000     0.375270000000     0.0554026  
H12      H      0.988230000000     0.786060000000     0.399840000000     0.0616709  
H13      H      0.033860000000     0.820780000000     0.548550000000     0.0573218  
H14      H      0.992880000000     0.852850000000     0.525100000000     0.084858   
H15      H      0.087200000000     0.813430000000     0.374630000000     0.0375969  
H16      H      0.935470000000     0.881240000000     0.511040000000     0.16216    
H17      H      0.779850000000     0.932270000000     0.468070000000     0.0391455  
H18      H      0.841560000000     0.090650000000     0.373880000000     0.0333204  
H19      H      0.864520000000     0.994570000000     0.404350000000     0.0552752  
H20      H      0.841060000000     0.036710000000     0.364520000000     0.0611332  
H21      H      0.774280000000     0.986510000000     0.467660000000     0.0557206  
H22      H      0.791910000000     0.029680000000     0.513790000000     0.0855998  
H23      H      0.868800000000     0.940490000000     0.403520000000     0.0362074  
H24      H      0.767370000000     0.090290000000     0.518560000000     0.161009   
H25      H      0.931500000000     0.212300000000     0.409080000000     0.0374738  
H26      H      0.076020000000     0.143940000000     0.534980000000     0.0341486  
H27      H      0.979610000000     0.174680000000     0.574680000000     0.0558358  
H28      H      0.021800000000     0.147340000000     0.533240000000     0.0620804  
H29      H      0.986040000000     0.212480000000     0.415220000000     0.05543    
H30      H      0.028460000000     0.235670000000     0.463880000000     0.0850813  
H31      H      0.925140000000     0.174550000000     0.566990000000     0.0370637  
H32      H      0.089280000000     0.232680000000     0.422100000000     0.161558   
H33      H      0.698500000000     0.767140000000     0.814930000000     0.0375933  
H34      H      0.836970000000     0.787480000000     0.620220000000     0.0359884  
H35      H      0.785130000000     0.721050000000     0.721680000000     0.0553936  
H36      H      0.814840000000     0.764330000000     0.698690000000     0.0627295  
H37      H      0.721010000000     0.793230000000     0.739030000000     0.0577708  
H38      H      0.726680000000     0.789480000000     0.642560000000     0.0843933  
H39      H      0.762570000000     0.696030000000     0.798280000000     0.0374214  
H40      H      0.740040000000     0.799990000000     0.530640000000     0.161389   
H41      H      0.808070000000     0.831330000000     0.254290000000     0.0368423  
H42      H      0.702910000000     0.707400000000     0.137110000000     0.0346884  
H43      H      0.772380000000     0.726790000000     0.270020000000     0.0549479  
H44      H      0.726320000000     0.730540000000     0.214520000000     0.0619828  
H45      H      0.785980000000     0.807110000000     0.176180000000     0.0577788  
H46      H      0.796150000000     0.765850000000     0.112080000000     0.0847985  
H47      H      0.794390000000     0.751740000000     0.347450000000     0.0358558  
H48      H      0.789410000000     0.726180000000     0.020540000000     0.160997   
H49      H      0.692700000000     0.318700000000     0.777150000000     0.0372848  
H50      H      0.788470000000     0.189520000000     0.653130000000     0.0370669  
H51      H      0.778590000000     0.249990000000     0.803080000000     0.0553062  
H52      H      0.765600000000     0.212560000000     0.731360000000     0.0629167  
H53      H      0.716530000000     0.296240000000     0.698760000000     0.0578035  
H54      H      0.765990000000     0.297910000000     0.650170000000     0.0847161  
H55      H      0.754260000000     0.272840000000     0.880670000000     0.0358522  
H56      H      0.811140000000     0.285880000000     0.568720000000     0.16142    
H57      H      0.823760000000     0.254100000000     0.316000000000     0.0382868  
H58      H      0.696560000000     0.254330000000     0.098510000000     0.034026   
H59      H      0.718440000000     0.228510000000     0.273130000000     0.0556743  
H60      H      0.719330000000     0.230280000000     0.175520000000     0.0615054  
H61      H      0.799820000000     0.278150000000     0.239930000000     0.0555263  
H62      H      0.761050000000     0.314120000000     0.219120000000     0.0854214  
H63      H      0.743400000000     0.204340000000     0.348460000000     0.0367148  
H64      H      0.758380000000     0.344560000000     0.116620000000     0.161948   
H65      H      0.700950000000     0.584780000000     0.861710000000     0.0371679  
H66      H      0.726950000000     0.432190000000     0.015510000000     0.0363063  
H67      H      0.704700000000     0.531390000000     0.035530000000     0.056189   
H68      H      0.733460000000     0.486150000000     0.011930000000     0.0619656  
H69      H      0.701440000000     0.530330000000     0.861950000000     0.0551748  
H70      H      0.666230000000     0.491070000000     0.887580000000     0.0855222  
H71      H      0.704670000000     0.585890000000     0.033750000000     0.0364784  
H72      H      0.667940000000     0.429250000000     0.850500000000     0.160173   
H73      H      0.313970000000     0.761280000000     0.835330000000     0.0367727  
H74      H      0.194460000000     0.754480000000     0.604580000000     0.0354417  
H75      H      0.258340000000     0.697340000000     0.707340000000     0.0558218  
H76      H      0.217330000000     0.731080000000     0.682190000000     0.0624841  
H77      H      0.290960000000     0.784260000000     0.757100000000     0.0574994  
H78      H      0.296340000000     0.785710000000     0.659540000000     0.0848098  
H79      H      0.281280000000     0.675150000000     0.786530000000     0.0375138  
H80      H      0.287900000000     0.802640000000     0.548230000000     0.161079   
H81      H      0.253870000000     0.703720000000     0.070060000000     0.0389806  
H82      H      0.256760000000     0.822880000000     0.302390000000     0.033758   
H83      H      0.315700000000     0.761640000000     0.198130000000     0.0554701  
H84      H      0.280520000000     0.801330000000     0.223680000000     0.0616055  
H85      H      0.229770000000     0.726380000000     0.147800000000     0.056018   
H86      H      0.228220000000     0.720790000000     0.245200000000     0.0856482  
H87      H      0.339000000000     0.739050000000     0.119420000000     0.0367906  
H88      H      0.180140000000     0.744480000000     0.311710000000     0.162179   
H89      H      0.592460000000     0.722140000000     0.013150000000     0.037268   
H90      H      0.436820000000     0.697970000000     0.868690000000     0.0340183  
H91      H      0.534430000000     0.668240000000     0.874210000000     0.0559424  
H92      H      0.491030000000     0.702230000000     0.863740000000     0.0617907  
H93      H      0.537760000000     0.723710000000     0.016490000000     0.0554367  
H94      H      0.496450000000     0.687980000000     0.034880000000     0.0854288  
H95      H      0.588990000000     0.667320000000     0.871850000000     0.0368363  
H96      H      0.434970000000     0.703610000000     0.064480000000     0.160826   
H97      H      0.261010000000     0.192940000000     0.626480000000     0.0372206  
H98      H      0.259720000000     0.320490000000     0.844630000000     0.0355072  
H99      H      0.200420000000     0.260640000000     0.740660000000     0.0561856  
H100     H      0.236240000000     0.297370000000     0.767580000000     0.0622776  
H101     H      0.284200000000     0.215680000000     0.704670000000     0.0551399  
H102     H      0.284440000000     0.215450000000     0.800330000000     0.0848876  
H103     H      0.178310000000     0.238260000000     0.661000000000     0.0381382  
H104     H      0.332800000000     0.239300000000     0.865380000000     0.162031   
H105     H      0.177570000000     0.217650000000     0.313960000000     0.0367771  
H106     H      0.321950000000     0.258930000000     0.149500000000     0.0350543  
H107     H      0.284440000000     0.247630000000     0.319630000000     0.0554647  
H108     H      0.299160000000     0.235280000000     0.226920000000     0.0623596  
H109     H      0.199740000000     0.241770000000     0.235650000000     0.0577618  
H110     H      0.220460000000     0.290570000000     0.206820000000     0.0851551  
H111     H      0.261670000000     0.223220000000     0.396910000000     0.036831   
H112     H      0.245850000000     0.337820000000     0.141040000000     0.162897   
H113     H      0.578990000000     0.359800000000     0.047120000000     0.0387213  
H114     H      0.427730000000     0.310110000000     0.915580000000     0.033679   
H115     H      0.526610000000     0.282360000000     0.940480000000     0.0551141  
H116     H      0.482100000000     0.309620000000     0.913120000000     0.0620765  
H117     H      0.524680000000     0.356410000000     0.052600000000     0.0583265  
H118     H      0.484010000000     0.325360000000     0.084230000000     0.0848843  
H119     H      0.581020000000     0.286880000000     0.935040000000     0.0370449  
H120     H      0.423340000000     0.306710000000     0.111260000000     0.161162   
H121     H      0.318700000000     0.430030000000     0.070600000000     0.0378576  
H122     H      0.364240000000     0.573320000000     0.906530000000     0.0345026  
H123     H      0.329470000000     0.477570000000     0.892260000000     0.0558367  
H124     H      0.361440000000     0.519330000000     0.912620000000     0.0621843  
H125     H      0.320010000000     0.484390000000     0.064810000000     0.0560275  
H126     H      0.292620000000     0.527570000000     0.034250000000     0.0853817  
H127     H      0.328910000000     0.423350000000     0.899760000000     0.0373631  
H128     H      0.304240000000     0.588490000000     0.069310000000     0.162155   
N1       N      0.193710000000     0.921800000000     0.460020000000    -0.205956   
N2       N      0.191150000000     0.080690000000     0.483970000000    -0.177946   
N3       N      0.932100000000     0.825170000000     0.459750000000    -0.206134   
N4       N      0.091740000000     0.817840000000     0.460260000000    -0.177233   
N5       N      0.817180000000     0.091490000000     0.448660000000    -0.20636    
N6       N      0.824750000000     0.932490000000     0.436190000000    -0.177363   
N7       N      0.083800000000     0.187360000000     0.499900000000    -0.206059   
N8       N      0.924420000000     0.193130000000     0.487310000000    -0.177645   
N9       N      0.795010000000     0.801880000000     0.585960000000    -0.205802   
N10      N      0.728920000000     0.729750000000     0.812110000000    -0.177229   
N11      N      0.735600000000     0.723230000000     0.079910000000    -0.206094   
N12      N      0.802690000000     0.793350000000     0.306520000000    -0.178349   
N13      N      0.790500000000     0.230080000000     0.606420000000    -0.205959   
N14      N      0.721720000000     0.297340000000     0.834500000000    -0.178274   
N15      N      0.716020000000     0.297720000000     0.113260000000    -0.205587   
N16      N      0.785330000000     0.227490000000     0.337710000000    -0.177064   
N17      N      0.693020000000     0.430430000000     0.954090000000    -0.205549   
N18      N      0.702310000000     0.589230000000     0.947710000000    -0.177795   
N19      N      0.231720000000     0.783750000000     0.587480000000    -0.205653   
N20      N      0.299290000000     0.716580000000     0.816580000000    -0.177929   
N21      N      0.228590000000     0.784770000000     0.318990000000    -0.206553   
N22      N      0.298160000000     0.719670000000     0.089220000000    -0.177022   
N23      N      0.435160000000     0.690340000000     0.954060000000    -0.206167   
N24      N      0.594640000000     0.694400000000     0.942610000000    -0.177722   
N25      N      0.286170000000     0.281970000000     0.866320000000    -0.20597    
N26      N      0.218050000000     0.214040000000     0.637990000000    -0.177532   
N27      N      0.284700000000     0.288310000000     0.133060000000    -0.205876   
N28      N      0.218020000000     0.218610000000     0.360970000000    -0.177629   
N29      N      0.424320000000     0.318750000000     0.000480000000    -0.206408   
N30      N      0.583890000000     0.323770000000     0.990360000000    -0.177687   
N31      N      0.330730000000     0.581820000000     0.967160000000    -0.206298   
N32      N      0.323970000000     0.422780000000     0.985720000000    -0.177273   
O1       O      0.324430000000     0.292820000000     0.073570000000    -0.247572   
O2       O      0.292830000000     0.322960000000     0.922030000000    -0.246883   
O3       O      0.378180000000     0.327420000000     0.040980000000    -0.235211   
O4       O      0.322010000000     0.378600000000     0.034170000000    -0.244907   
O5       O      0.328650000000     0.375550000000     0.948690000000    -0.246621   
O6       O      0.378460000000     0.317000000000     0.956790000000    -0.25011    
O7       O      0.286450000000     0.321700000000     0.061550000000    -0.235298   
O8       O      0.319840000000     0.284050000000     0.937310000000    -0.236562   
O9       O      0.296810000000     0.690920000000     0.012010000000    -0.243136   
O10      O      0.326780000000     0.719290000000     0.895090000000    -0.250009   
O11      O      0.318550000000     0.630410000000     0.992220000000    -0.235866   
O12      O      0.390070000000     0.679840000000     0.997120000000    -0.23306    
O13      O      0.388700000000     0.689150000000     0.912480000000    -0.249932   
O14      O      0.351240000000     0.624680000000     0.929690000000    -0.25055    
O15      O      0.339630000000     0.708550000000     0.036750000000    -0.244086   
O16      O      0.310650000000     0.675980000000     0.870510000000    -0.247926   
O17      O      0.629940000000     0.310790000000     0.953970000000    -0.246954   
O18      O      0.704060000000     0.384250000000     0.991670000000    -0.241708   
O19      O      0.685050000000     0.326580000000     0.874210000000    -0.247346   
O20      O      0.686850000000     0.295310000000     0.036420000000    -0.249588   
O21      O      0.708090000000     0.337360000000     0.054730000000    -0.230257   
O22      O      0.717210000000     0.305380000000     0.925890000000    -0.252166   
O23      O      0.628770000000     0.347030000000     0.010950000000    -0.247974   
O24      O      0.669290000000     0.385870000000     0.932150000000    -0.234732   
O25      O      0.726520000000     0.690450000000     0.872290000000    -0.243498   
O26      O      0.696580000000     0.696220000000     0.042020000000    -0.244467   
O27      O      0.696860000000     0.634470000000     0.903850000000    -0.245213   
O28      O      0.639400000000     0.676310000000     0.908560000000    -0.250637   
O29      O      0.641530000000     0.705050000000     0.977740000000    -0.245673   
O30      O      0.698920000000     0.635240000000     0.990060000000    -0.250397   
O31      O      0.693630000000     0.725680000000     0.880150000000    -0.246993   
O32      O      0.731240000000     0.712180000000     0.989190000000    -0.238642   
O33      O      0.808330000000     0.136200000000     0.493550000000    -0.231764   
O34      O      0.880350000000     0.199530000000     0.439770000000    -0.243458   
O35      O      0.807560000000     0.187940000000     0.561560000000    -0.241901   
O36      O      0.786070000000     0.194520000000     0.409420000000    -0.249016   
O37      O      0.826160000000     0.220080000000     0.393230000000    -0.24122    
O38      O      0.810780000000     0.230060000000     0.520450000000    -0.239847   
O39      O      0.835250000000     0.137790000000     0.421980000000    -0.254055   
O40      O      0.877140000000     0.181370000000     0.519490000000    -0.250694   
O41      O      0.836680000000     0.812430000000     0.533520000000    -0.247913   
O42      O      0.822700000000     0.834650000000     0.349650000000    -0.250709   
O43      O      0.886800000000     0.846310000000     0.485950000000    -0.233041   
O44      O      0.851970000000     0.889200000000     0.421760000000    -0.248234   
O45      O      0.808190000000     0.884810000000     0.457590000000    -0.242349   
O46      O      0.885950000000     0.814330000000     0.421370000000    -0.251029   
O47      O      0.793780000000     0.827180000000     0.504540000000    -0.233551   
O48      O      0.817020000000     0.794300000000     0.395670000000    -0.250743   
O49      O      0.195700000000     0.784760000000     0.391430000000    -0.237599   
O50      O      0.191240000000     0.789730000000     0.530140000000    -0.246032   
O51      O      0.137920000000     0.823700000000     0.501380000000    -0.245318   
O52      O      0.181560000000     0.876990000000     0.418050000000    -0.236676   
O53      O      0.200700000000     0.874730000000     0.496980000000    -0.245221   
O54      O      0.137270000000     0.818200000000     0.415470000000    -0.245055   
O55      O      0.222220000000     0.824240000000     0.378350000000    -0.251098   
O56      O      0.229700000000     0.817920000000     0.517380000000    -0.234179   
O57      O      0.190540000000     0.128460000000     0.448100000000    -0.251033   
O58      O      0.132290000000     0.204320000000     0.483600000000    -0.231978   
O59      O      0.178290000000     0.196040000000     0.405170000000    -0.244958   
O60      O      0.219660000000     0.183310000000     0.563300000000    -0.246077   
O61      O      0.178810000000     0.207660000000     0.578340000000    -0.247633   
O62      O      0.220310000000     0.199680000000     0.447270000000    -0.24788    
O63      O      0.181930000000     0.123800000000     0.532730000000    -0.246285   
O64      O      0.126990000000     0.159950000000     0.515680000000    -0.251054   
O65      O      0.171040000000     0.927060000000     0.372810000000    -0.284816   
O66      O      0.935680000000     0.861820000000     0.530550000000    -0.283793   
O67      O      0.788410000000     0.086730000000     0.530220000000    -0.282606   
O68      O      0.086670000000     0.236680000000     0.461130000000    -0.283727   
O69      O      0.745530000000     0.816060000000     0.556480000000    -0.283646   
O70      O      0.775100000000     0.743160000000     0.024130000000    -0.284745   
O71      O      0.790500000000     0.278140000000     0.562530000000    -0.284895   
O72      O      0.739810000000     0.344030000000     0.138860000000    -0.283438   
O73      O      0.656300000000     0.434120000000     0.883480000000    -0.28316    
O74      O      0.276280000000     0.813690000000     0.576040000000    -0.283714   
O75      O      0.199570000000     0.739580000000     0.329220000000    -0.28448    
O76      O      0.439050000000     0.683320000000     0.049690000000    -0.283876   
O77      O      0.312960000000     0.236050000000     0.882840000000    -0.284409   
O78      O      0.240410000000     0.318720000000     0.122970000000    -0.284203   
O79      O      0.426310000000     0.327070000000     0.096000000000    -0.28404    
O80      O      0.292630000000     0.585530000000     0.035670000000    -0.283774   


