data_structure

_audit_creation_method RASPA-1.0
_audit_creation_date 2023-6-5
_audit_author_name 'Poobodin Mano'

_cell_length_a    43.9548
_cell_length_b    44.1921
_cell_length_c    25.2539
_cell_angle_alpha 90.0404
_cell_angle_beta  89.8815
_cell_angle_gamma 90.0001
_cell_volume      49054.4

_symmetry_cell_setting          triclinic
_symmetry_space_group_name_Hall 'P 1'
_symmetry_space_group_name_H-M  'P 1'
_symmetry_Int_Tables_number     1

_symmetry_equiv_pos_as_xyz 'x,y,z'

loop_
_atom_site_label
_atom_site_type_symbol
_atom_site_fract_x
_atom_site_fract_y
_atom_site_fract_z
_atom_site_charge
C1       C      0.400910000000     0.325410000000     0.946530000000     0.354754   
C2       C      0.307860000000     0.308200000000     0.054650000000     0.348038   
C3       C      0.324680000000     0.396750000000     0.973890000000     0.350594   
C4       C      0.310070000000     0.301160000000     0.870860000000     0.355686   
C5       C      0.324920000000     0.618590000000     0.986190000000     0.356184   
C6       C      0.309880000000     0.713070000000     0.076170000000     0.349492   
C7       C      0.401300000000     0.688710000000     0.989640000000     0.348191   
C8       C      0.308110000000     0.709370000000     0.891620000000     0.349141   
C9       C      0.720840000000     0.304350000000     0.848480000000     0.348357   
C10      C      0.624240000000     0.322790000000     0.936940000000     0.348836   
C11      C      0.711900000000     0.304480000000     0.034000000000     0.35621    
C12      C      0.696360000000     0.396810000000     0.932150000000     0.348095   
C13      C      0.696920000000     0.619220000000     0.949000000000     0.357978   
C14      C      0.715030000000     0.715580000000     0.862650000000     0.355913   
C15      C      0.624860000000     0.687340000000     0.967010000000     0.353065   
C16      C      0.720510000000     0.716300000000     0.039300000000     0.358482   
C17      C      0.816920000000     0.212630000000     0.534620000000     0.356065   
C18      C      0.835640000000     0.121910000000     0.436120000000     0.35112    
C19      C      0.808290000000     0.212050000000     0.346280000000     0.348533   
C20      C      0.903910000000     0.203420000000     0.440020000000     0.349005   
C21      C      0.805960000000     0.808010000000     0.544650000000     0.350295   
C22      C      0.902230000000     0.828440000000     0.454530000000     0.359387   
C23      C      0.811980000000     0.809220000000     0.355870000000     0.34782    
C24      C      0.832200000000     0.899190000000     0.453660000000     0.355049   
C25      C      0.220590000000     0.805150000000     0.395610000000     0.355911   
C26      C      0.125440000000     0.829380000000     0.481170000000     0.347876   
C27      C      0.218060000000     0.808590000000     0.580290000000     0.362446   
C28      C      0.200890000000     0.898420000000     0.484810000000     0.356257   
C29      C      0.217360000000     0.214530000000     0.370940000000     0.354141   
C30      C      0.200720000000     0.120280000000     0.471370000000     0.348198   
C31      C      0.219630000000     0.207050000000     0.555810000000     0.345966   
C32      C      0.126010000000     0.198670000000     0.452650000000     0.356438   
C33      C      0.209510000000     0.945610000000     0.531060000000     0.172245   
C34      C      0.201530000000     0.944710000000     0.437930000000     0.0800982  
C35      C      0.212330000000     0.977210000000     0.529380000000    -0.107734   
C36      C      0.192140000000     0.042570000000     0.518650000000    -0.0766366  
C37      C      0.203960000000     0.976150000000     0.435470000000    -0.0874413  
C38      C      0.208620000000     0.026390000000     0.480500000000     0.0342717  
C39      C      0.209000000000     0.992810000000     0.481610000000     0.0544453  
C40      C      0.190180000000     0.074010000000     0.515400000000     0.0739342  
C41      C      0.221210000000     0.074060000000     0.438470000000     0.0733888  
C42      C      0.223460000000     0.042510000000     0.440290000000    -0.0765219  
C43      C      0.950540000000     0.853050000000     0.441940000000     0.173968   
C44      C      0.948000000000     0.803350000000     0.477810000000     0.0810247  
C45      C      0.982290000000     0.852310000000     0.444610000000    -0.110098   
C46      C      0.045650000000     0.852000000000     0.491650000000    -0.0765037  
C47      C      0.979720000000     0.802090000000     0.481030000000    -0.0874119  
C48      C      0.030780000000     0.826800000000     0.470280000000     0.034127   
C49      C      0.997190000000     0.826820000000     0.464600000000     0.0551667  
C50      C      0.077280000000     0.852230000000     0.495660000000     0.0743644  
C51      C      0.080010000000     0.803110000000     0.458050000000     0.0735149  
C52      C      0.048280000000     0.801990000000     0.453960000000    -0.0759203  
C53      C      0.857330000000     0.946790000000     0.469390000000     0.173845   
C54      C      0.808220000000     0.945370000000     0.430160000000     0.0803915  
C55      C      0.856920000000     0.978410000000     0.468290000000    -0.10937    
C56      C      0.859590000000     0.042770000000     0.430130000000    -0.0763528  
C57      C      0.807540000000     0.976960000000     0.427570000000    -0.0867507  
C58      C      0.832520000000     0.027530000000     0.442460000000     0.0347421  
C59      C      0.832100000000     0.993920000000     0.446680000000     0.0551106  
C60      C      0.860090000000     0.074280000000     0.427840000000     0.0750679  
C61      C      0.807420000000     0.076360000000     0.447890000000     0.0750405  
C62      C      0.806150000000     0.044760000000     0.450930000000    -0.0754309  
C63      C      0.080350000000     0.223390000000     0.484500000000     0.170286   
C64      C      0.078640000000     0.188880000000     0.412190000000     0.0791651  
C65      C      0.048750000000     0.227540000000     0.480710000000    -0.107446   
C66      C      0.981700000000     0.210140000000     0.489670000000    -0.0765616  
C67      C      0.047260000000     0.192560000000     0.407930000000    -0.0876234  
C68      C      0.998170000000     0.213070000000     0.442440000000     0.0343139  
C69      C      0.031890000000     0.211700000000     0.442880000000     0.0537074  
C70      C      0.950040000000     0.207860000000     0.488250000000     0.0742608  
C71      C      0.950420000000     0.213060000000     0.394790000000     0.0734059  
C72      C      0.982140000000     0.215090000000     0.394700000000    -0.0771459  
C73      C      0.715910000000     0.757320000000     0.800550000000     0.171245   
C74      C      0.750990000000     0.716580000000     0.792980000000     0.0813339  
C75      C      0.727720000000     0.770100000000     0.753920000000    -0.106629   
C76      C      0.769340000000     0.801280000000     0.674530000000    -0.0756434  
C77      C      0.763420000000     0.729150000000     0.747200000000    -0.0864555  
C78      C      0.765070000000     0.769920000000     0.678310000000     0.0348475  
C79      C      0.751720000000     0.756120000000     0.726840000000     0.0544371  
C80      C      0.782780000000     0.813700000000     0.629290000000     0.0742657  
C81      C      0.787680000000     0.764910000000     0.591120000000     0.073886   
C82      C      0.774250000000     0.751760000000     0.635660000000    -0.0764841  
C83      C      0.765850000000     0.732370000000     0.085400000000     0.173225   
C84      C      0.716630000000     0.744220000000     0.118780000000     0.0829211  
C85      C      0.779050000000     0.745330000000     0.130680000000    -0.106124   
C86      C      0.800920000000     0.759410000000     0.241590000000    -0.0757066  
C87      C      0.729250000000     0.757340000000     0.163870000000    -0.0854636  
C88      C      0.774650000000     0.771730000000     0.218710000000     0.0354127  
C89      C      0.760820000000     0.757870000000     0.170600000000     0.0551026  
C90      C      0.813340000000     0.772470000000     0.287070000000     0.0747698  
C91      C      0.774400000000     0.809570000000     0.288340000000     0.0741069  
C92      C      0.761580000000     0.797300000000     0.242560000000    -0.0761166  
C93      C      0.795410000000     0.206660000000     0.622160000000     0.170001   
C94      C      0.803960000000     0.255590000000     0.585840000000     0.0792491  
C95      C      0.781380000000     0.219840000000     0.666490000000    -0.107619   
C96      C      0.737390000000     0.252380000000     0.739310000000    -0.0768899  
C97      C      0.790580000000     0.269180000000     0.630010000000    -0.0873031  
C98      C      0.763710000000     0.265260000000     0.717570000000     0.0340388  
C99      C      0.778700000000     0.251290000000     0.670700000000     0.0535051  
C100     C      0.723450000000     0.265700000000     0.783220000000     0.0735785  
C101     C      0.760960000000     0.304250000000     0.785010000000     0.0726991  
C102     C      0.775480000000     0.291520000000     0.741020000000    -0.0767834  
C103     C      0.725260000000     0.307420000000     0.126760000000     0.169905   
C104     C      0.732790000000     0.262030000000     0.077810000000     0.0787881  
C105     C      0.739370000000     0.294170000000     0.170870000000    -0.10711    
C106     C      0.754140000000     0.255480000000     0.266700000000    -0.0765372  
C107     C      0.746330000000     0.248240000000     0.121470000000    -0.0873598  
C108     C      0.764990000000     0.250190000000     0.215280000000     0.0341644  
C109     C      0.750100000000     0.264390000000     0.168600000000     0.0534161  
C110     C      0.768770000000     0.242380000000     0.310080000000     0.0734542  
C111     C      0.804430000000     0.218590000000     0.253100000000     0.0729221  
C112     C      0.790400000000     0.231380000000     0.208870000000    -0.0767891  
C113     C      0.707630000000     0.570790000000     0.989830000000     0.173154   
C114     C      0.691860000000     0.573930000000     0.899960000000     0.0806275  
C115     C      0.709740000000     0.539190000000     0.985220000000    -0.106999   
C116     C      0.724410000000     0.473540000000     0.957610000000    -0.0755176  
C117     C      0.693280000000     0.542550000000     0.894830000000    -0.087273   
C118     C      0.701600000000     0.491130000000     0.934140000000     0.0348641  
C119     C      0.702080000000     0.524720000000     0.937790000000     0.0549137  
C120     C      0.722650000000     0.441950000000     0.955750000000     0.0753398  
C121     C      0.676510000000     0.444750000000     0.907540000000     0.0742594  
C122     C      0.677610000000     0.476310000000     0.908480000000    -0.0762008  
C123     C      0.261210000000     0.800310000000     0.637590000000     0.17414    
C124     C      0.213030000000     0.778410000000     0.657060000000     0.0826555  
C125     C      0.273990000000     0.784890000000     0.680710000000    -0.107228   
C126     C      0.298380000000     0.737480000000     0.756390000000    -0.0763372  
C127     C      0.225150000000     0.763310000000     0.700650000000    -0.0866798  
C128     C      0.269360000000     0.750510000000     0.759230000000     0.0348505  
C129     C      0.256030000000     0.766200000000     0.712670000000     0.0553444  
C130     C      0.310900000000     0.723540000000     0.800920000000     0.0743836  
C131     C      0.266610000000     0.734760000000     0.850980000000     0.073671   
C132     C      0.253400000000     0.748850000000     0.807230000000    -0.0764725  
C133     C      0.234300000000     0.760570000000     0.345470000000     0.171576   
C134     C      0.248280000000     0.809700000000     0.315630000000     0.0803524  
C135     C      0.246270000000     0.748000000000     0.298860000000    -0.107503   
C136     C      0.257360000000     0.729640000000     0.184910000000    -0.0760841  
C137     C      0.260840000000     0.797610000000     0.269470000000    -0.0871449  
C138     C      0.272560000000     0.753080000000     0.211200000000     0.0349642  
C139     C      0.259610000000     0.766460000000     0.260310000000     0.054599   
C140     C      0.270070000000     0.716730000000     0.139560000000     0.0760918  
C141     C      0.312460000000     0.749780000000     0.145030000000     0.0744843  
C142     C      0.300350000000     0.763260000000     0.190510000000    -0.0760358  
C143     C      0.579410000000     0.677500000000     0.018360000000     0.17122    
C144     C      0.576380000000     0.700030000000     0.933030000000     0.0800691  
C145     C      0.547720000000     0.679740000000     0.023660000000    -0.107124   
C146     C      0.480810000000     0.666790000000     0.007970000000    -0.0757205  
C147     C      0.544760000000     0.701970000000     0.937120000000    -0.0860277  
C148     C      0.496230000000     0.691660000000     0.986410000000     0.0346395  
C149     C      0.530020000000     0.691620000000     0.982690000000     0.0541534  
C150     C      0.449090000000     0.666460000000     0.009480000000     0.0746933  
C151     C      0.447230000000     0.714950000000     0.969500000000     0.0739042  
C152     C      0.479020000000     0.716020000000     0.967340000000    -0.0761836  
C153     C      0.283510000000     0.258510000000     0.832800000000     0.170518   
C154     C      0.298920000000     0.300180000000     0.779440000000     0.0806947  
C155     C      0.272000000000     0.243900000000     0.787700000000    -0.107431   
C156     C      0.230530000000     0.231830000000     0.692730000000    -0.0753147  
C157     C      0.287580000000     0.286100000000     0.734190000000    -0.0868489  
C158     C      0.260190000000     0.243290000000     0.690770000000     0.035058   
C159     C      0.273850000000     0.257730000000     0.738050000000     0.05473    
C160     C      0.217360000000     0.219650000000     0.647210000000     0.0761593  
C161     C      0.262560000000     0.228920000000     0.598350000000     0.0757291  
C162     C      0.276280000000     0.241670000000     0.642960000000    -0.0750821  
C163     C      0.250140000000     0.252810000000     0.333290000000     0.170635   
C164     C      0.223810000000     0.217850000000     0.278200000000     0.07967    
C165     C      0.261950000000     0.267180000000     0.288170000000    -0.10764    
C166     C      0.299650000000     0.277010000000     0.188070000000    -0.0764613  
C167     C      0.235420000000     0.231710000000     0.232870000000    -0.0875417  
C168     C      0.268460000000     0.270710000000     0.189880000000     0.0348819  
C169     C      0.254760000000     0.256610000000     0.237560000000     0.0542265  
C170     C      0.312430000000     0.289560000000     0.142470000000     0.0752563  
C171     C      0.264130000000     0.290420000000     0.100790000000     0.0756214  
C172     C      0.250640000000     0.277520000000     0.145570000000    -0.0758742  
C173     C      0.448700000000     0.342350000000     0.909220000000     0.170139   
C174     C      0.447140000000     0.302100000000     0.971650000000     0.0792914  
C175     C      0.480400000000     0.339460000000     0.905810000000    -0.107444   
C176     C      0.545830000000     0.319810000000     0.888910000000    -0.0770172  
C177     C      0.478740000000     0.299260000000     0.969670000000    -0.0870535  
C178     C      0.529540000000     0.316980000000     0.936370000000     0.034462   
C179     C      0.495770000000     0.318160000000     0.936690000000     0.0538281  
C180     C      0.577560000000     0.321040000000     0.889740000000     0.0742411  
C181     C      0.577560000000     0.316030000000     0.983230000000     0.0736786  
C182     C      0.545820000000     0.314610000000     0.983830000000    -0.076358   
C183     C      0.320650000000     0.571440000000     0.034230000000     0.171117   
C184     C      0.318990000000     0.572330000000     0.940110000000     0.0794385  
C185     C      0.317630000000     0.539870000000     0.033440000000    -0.107632   
C186     C      0.336120000000     0.474630000000     0.018270000000    -0.0758139  
C187     C      0.316440000000     0.540870000000     0.938420000000    -0.0867785  
C188     C      0.316740000000     0.490610000000     0.984350000000     0.0351003  
C189     C      0.316220000000     0.524220000000     0.985400000000     0.0543268  
C190     C      0.337960000000     0.443200000000     0.014930000000     0.0764164  
C191     C      0.301350000000     0.442690000000     0.946090000000     0.0751533  
C192     C      0.299000000000     0.474230000000     0.948260000000    -0.0759837  
Cd1      Cd     0.335870000000     0.332700000000     0.960570000000     0.517069   
Cd2      Cd     0.335770000000     0.683190000000     0.984880000000     0.514336   
Cd3      Cd     0.689380000000     0.331740000000     0.937270000000     0.513722   
Cd4      Cd     0.690190000000     0.684480000000     0.954010000000     0.52098    
Cd5      Cd     0.840140000000     0.187370000000     0.437110000000     0.513756   
Cd6      Cd     0.836440000000     0.833910000000     0.453080000000     0.51399    
Cd7      Cd     0.191230000000     0.833860000000     0.485370000000     0.51871    
Cd8      Cd     0.190290000000     0.184770000000     0.461480000000     0.515766   
H1       H      0.176760000000     0.085610000000     0.545240000000     0.040803   
H2       H      0.197380000000     0.932890000000     0.400990000000     0.0387612  
H3       H      0.236660000000     0.030830000000     0.410320000000     0.0603107  
H4       H      0.200970000000     0.987370000000     0.397710000000     0.0626097  
H5       H      0.180030000000     0.030980000000     0.550040000000     0.063059   
H6       H      0.216180000000     0.989600000000     0.565820000000     0.0838095  
H7       H      0.232780000000     0.085750000000     0.406500000000     0.039872   
H8       H      0.087860000000     0.872260000000     0.512270000000     0.0418194  
H9       H      0.935280000000     0.783690000000     0.490920000000     0.0379624  
H10      H      0.037590000000     0.782130000000     0.437090000000     0.0611258  
H11      H      0.990460000000     0.782090000000     0.497280000000     0.0637143  
H12      H      0.032900000000     0.871450000000     0.505480000000     0.0637652  
H13      H      0.995180000000     0.871990000000     0.432200000000     0.0820327  
H14      H      0.092880000000     0.783670000000     0.444360000000     0.0422156  
H15      H      0.881600000000     0.085080000000     0.418530000000     0.039619   
H16      H      0.788620000000     0.933190000000     0.415160000000     0.0383085  
H17      H      0.784760000000     0.034000000000     0.460900000000     0.0606037  
H18      H      0.788060000000     0.987950000000     0.409780000000     0.0622945  
H19      H      0.880380000000     0.030470000000     0.421910000000     0.0624238  
H20      H      0.876450000000     0.990680000000     0.483220000000     0.0819704  
H21      H      0.786650000000     0.088920000000     0.455290000000     0.0420335  
H22      H      0.938190000000     0.204710000000     0.525540000000     0.0412198  
H23      H      0.089410000000     0.173540000000     0.384330000000     0.0379333  
H24      H      0.994080000000     0.217720000000     0.357410000000     0.0598079  
H25      H      0.035000000000     0.179630000000     0.378410000000     0.0625274  
H26      H      0.993250000000     0.208290000000     0.527390000000     0.0633195  
H27      H      0.037290000000     0.242340000000     0.508580000000     0.0832188  
H28      H      0.938850000000     0.214090000000     0.356950000000     0.0390821  
H29      H      0.785940000000     0.838020000000     0.628130000000     0.0413153  
H30      H      0.760770000000     0.695440000000     0.806600000000     0.0417484  
H31      H      0.770980000000     0.727470000000     0.636470000000     0.0600174  
H32      H      0.782390000000     0.717840000000     0.728230000000     0.0637192  
H33      H      0.762960000000     0.816180000000     0.706760000000     0.0633665  
H34      H      0.718360000000     0.791210000000     0.739460000000     0.0832005  
H35      H      0.794570000000     0.750020000000     0.559120000000     0.0395797  
H36      H      0.833550000000     0.762120000000     0.303660000000     0.0408186  
H37      H      0.692000000000     0.743840000000     0.116200000000     0.0439174  
H38      H      0.741670000000     0.808060000000     0.225840000000     0.0604021  
H39      H      0.714130000000     0.766400000000     0.193840000000     0.0642645  
H40      H      0.811630000000     0.739430000000     0.225130000000     0.0640096  
H41      H      0.803610000000     0.746630000000     0.133450000000     0.0839667  
H42      H      0.763490000000     0.829260000000     0.305600000000     0.0402499  
H43      H      0.703030000000     0.255070000000     0.798590000000     0.040023   
H44      H      0.812090000000     0.270480000000     0.554780000000     0.03855    
H45      H      0.796000000000     0.302020000000     0.725940000000     0.0594455  
H46      H      0.788890000000     0.293610000000     0.631510000000     0.0620692  
H47      H      0.727280000000     0.232310000000     0.722070000000     0.0624025  
H48      H      0.773620000000     0.205470000000     0.698530000000     0.0829432  
H49      H      0.770770000000     0.324540000000     0.802070000000     0.0387027  
H50      H      0.759710000000     0.247100000000     0.349190000000     0.0395032  
H51      H      0.730930000000     0.248610000000     0.041980000000     0.0381166  
H52      H      0.799810000000     0.226930000000     0.169970000000     0.0592469  
H53      H      0.753730000000     0.224940000000     0.118210000000     0.0617705  
H54      H      0.734270000000     0.269440000000     0.273530000000     0.0618559  
H55      H      0.741590000000     0.307180000000     0.207040000000     0.0829018  
H56      H      0.824170000000     0.204360000000     0.246410000000     0.0390475  
H57      H      0.740600000000     0.429130000000     0.974720000000     0.043328   
H58      H      0.685040000000     0.586640000000     0.865230000000     0.0391411  
H59      H      0.659280000000     0.488970000000     0.890360000000     0.0606798  
H60      H      0.687520000000     0.532330000000     0.857160000000     0.0625662  
H61      H      0.743530000000     0.484080000000     0.977330000000     0.064119   
H62      H      0.715770000000     0.525900000000     0.019700000000     0.0856734  
H63      H      0.657300000000     0.434220000000     0.887910000000     0.0395461  
H64      H      0.333450000000     0.713820000000     0.797140000000     0.0404249  
H65      H      0.189090000000     0.774840000000     0.648780000000     0.040371   
H66      H      0.231060000000     0.758930000000     0.811410000000     0.0604928  
H67      H      0.210420000000     0.748970000000     0.724200000000     0.0634955  
H68      H      0.311340000000     0.737870000000     0.719870000000     0.0637971  
H69      H      0.297690000000     0.788630000000     0.690520000000     0.0845312  
H70      H      0.253620000000     0.734220000000     0.887530000000     0.0392386  
H71      H      0.257580000000     0.698580000000     0.120540000000     0.0433305  
H72      H      0.249190000000     0.834090000000     0.320200000000     0.0395204  
H73      H      0.313010000000     0.781130000000     0.209880000000     0.0608587  
H74      H      0.270860000000     0.812740000000     0.240580000000     0.0626262  
H75      H      0.235610000000     0.721380000000     0.199070000000     0.0639134  
H76      H      0.246210000000     0.723640000000     0.293860000000     0.085173   
H77      H      0.334140000000     0.758070000000     0.130520000000     0.0397475  
H78      H      0.438130000000     0.646580000000     0.025910000000     0.0432274  
H79      H      0.586670000000     0.708450000000     0.896850000000     0.0429728  
H80      H      0.490010000000     0.735850000000     0.950910000000     0.0608761  
H81      H      0.531950000000     0.710970000000     0.904100000000     0.0638757  
H82      H      0.493110000000     0.647250000000     0.022470000000     0.0636763  
H83      H      0.536950000000     0.671400000000     0.059420000000     0.083969   
H84      H      0.434710000000     0.734130000000     0.954030000000     0.0398673  
H85      H      0.194190000000     0.211390000000     0.650140000000     0.0452611  
H86      H      0.309500000000     0.322160000000     0.774300000000     0.0418598  
H87      H      0.299350000000     0.250150000000     0.640090000000     0.0630259  
H88      H      0.289080000000     0.297680000000     0.696470000000     0.066238   
H89      H      0.217280000000     0.232940000000     0.728900000000     0.06464    
H90      H      0.260950000000     0.222090000000     0.791730000000     0.0838012  
H91      H      0.275690000000     0.228150000000     0.561970000000     0.0467327  
H92      H      0.336720000000     0.293860000000     0.142500000000     0.0411377  
H93      H      0.208730000000     0.198700000000     0.272440000000     0.0386214  
H94      H      0.226400000000     0.273140000000     0.145640000000     0.0617056  
H95      H      0.229630000000     0.222630000000     0.194330000000     0.0642806  
H96      H      0.314230000000     0.271770000000     0.221350000000     0.0631865  
H97      H      0.277310000000     0.286190000000     0.292800000000     0.0836872  
H98      H      0.249610000000     0.295410000000     0.067250000000     0.0437029  
H99      H      0.589290000000     0.323620000000     0.852200000000     0.0399878  
H100     H      0.434990000000     0.286790000000     0.997740000000     0.0399802  
H101     H      0.534110000000     0.312660000000     0.021460000000     0.0611084  
H102     H      0.489750000000     0.282270000000     0.993880000000     0.0627367  
H103     H      0.534130000000     0.321300000000     0.851290000000     0.0624146  
H104     H      0.493070000000     0.355020000000     0.881000000000     0.0830882  
H105     H      0.589310000000     0.314720000000     0.020880000000     0.0418383  
H106     H      0.353650000000     0.431810000000     0.041330000000     0.0418685  
H107     H      0.319370000000     0.584150000000     0.902490000000     0.0388292  
H108     H      0.283480000000     0.485680000000     0.921730000000     0.0607027  
H109     H      0.315640000000     0.529650000000     0.900300000000     0.0638315  
H110     H      0.350550000000     0.486370000000     0.046290000000     0.063953   
H111     H      0.317350000000     0.527580000000     0.070570000000     0.0833261  
H112     H      0.287530000000     0.430810000000     0.917270000000     0.0411093  
N1       N      0.204040000000     0.929390000000     0.485110000000    -0.186761   
N2       N      0.204280000000     0.089580000000     0.475260000000    -0.177581   
N3       N      0.210370000000     0.931400000000     0.582100000000    -0.0313452  
N4       N      0.933460000000     0.828350000000     0.457830000000    -0.187676   
N5       N      0.094340000000     0.828130000000     0.478450000000    -0.176817   
N6       N      0.936380000000     0.880990000000     0.427400000000    -0.0375178  
N7       N      0.832660000000     0.930310000000     0.451350000000    -0.186501   
N8       N      0.834280000000     0.090950000000     0.437040000000    -0.177248   
N9       N      0.885000000000     0.932190000000     0.484750000000    -0.0374506  
N10      N      0.095200000000     0.203890000000     0.450150000000    -0.187784   
N11      N      0.934630000000     0.208580000000     0.441070000000    -0.177426   
N12      N      0.095810000000     0.238020000000     0.527460000000    -0.0318152  
N13      N      0.727180000000     0.730110000000     0.819290000000    -0.186293   
N14      N      0.792080000000     0.795600000000     0.588140000000    -0.177715   
N15      N      0.693260000000     0.774230000000     0.828960000000    -0.0315852  
N16      N      0.734530000000     0.731130000000     0.080420000000    -0.186199   
N17      N      0.800010000000     0.797180000000     0.310470000000    -0.177175   
N18      N      0.785800000000     0.722770000000     0.043500000000    -0.0313334  
N19      N      0.805770000000     0.224640000000     0.581030000000    -0.18712    
N20      N      0.735110000000     0.291460000000     0.805800000000    -0.177732   
N21      N      0.800310000000     0.174530000000     0.622920000000    -0.0313938  
N22      N      0.722890000000     0.291530000000     0.079670000000    -0.187338   
N23      N      0.793800000000     0.224220000000     0.303290000000    -0.177744   
N24      N      0.712170000000     0.336950000000     0.133370000000    -0.0315773  
N25      N      0.698860000000     0.588150000000     0.946840000000    -0.186888   
N26      N      0.698660000000     0.427730000000     0.931480000000    -0.176649   
N27      N      0.712700000000     0.583810000000     0.041130000000    -0.0320499  
N28      N      0.230850000000     0.796250000000     0.624970000000    -0.187217   
N29      N      0.295200000000     0.722400000000     0.847910000000    -0.177757   
N30      N      0.280030000000     0.821750000000     0.610080000000    -0.0324227  
N31      N      0.234510000000     0.791600000000     0.352920000000    -0.187103   
N32      N      0.297490000000     0.726580000000     0.120020000000    -0.17677    
N33      N      0.223920000000     0.740130000000     0.385830000000    -0.0315363  
N34      N      0.593750000000     0.688040000000     0.973100000000    -0.18616    
N35      N      0.432440000000     0.690200000000     0.989910000000    -0.176931   
N36      N      0.595730000000     0.662260000000     0.059650000000    -0.0316708  
N37      N      0.297340000000     0.286540000000     0.828290000000    -0.187235   
N38      N      0.233210000000     0.218360000000     0.600380000000    -0.175018   
N39      N      0.278180000000     0.244550000000     0.883320000000    -0.0317693  
N40      N      0.230650000000     0.228390000000     0.328020000000    -0.187222   
N41      N      0.294810000000     0.296170000000     0.099200000000    -0.176252   
N42      N      0.260840000000     0.262830000000     0.384050000000    -0.0316527  
N43      N      0.432060000000     0.323470000000     0.942080000000    -0.187179   
N44      N      0.593240000000     0.319720000000     0.936630000000    -0.177206   
N45      N      0.434840000000     0.366630000000     0.880310000000    -0.0313881  
N46      N      0.321470000000     0.587650000000     0.987330000000    -0.18758    
N47      N      0.321060000000     0.427410000000     0.978600000000    -0.177079   
N48      N      0.324660000000     0.585650000000     0.084810000000    -0.0316843  
O1       O      0.336340000000     0.312150000000     0.050830000000    -0.238564   
O2       O      0.317930000000     0.328720000000     0.868610000000    -0.239232   
O3       O      0.386040000000     0.309720000000     0.979630000000    -0.24074    
O4       O      0.343740000000     0.382360000000     0.001650000000    -0.245464   
O5       O      0.310010000000     0.381220000000     0.940380000000    -0.239471   
O6       O      0.385170000000     0.343190000000     0.918570000000    -0.227147   
O7       O      0.292250000000     0.315830000000     0.014650000000    -0.238856   
O8       O      0.315230000000     0.288030000000     0.914460000000    -0.22662    
O9       O      0.296690000000     0.691430000000     0.052640000000    -0.237099   
O10      O      0.334600000000     0.698110000000     0.890630000000    -0.243648   
O11      O      0.325730000000     0.634500000000     0.027780000000    -0.221527   
O12      O      0.387170000000     0.665760000000     0.006860000000    -0.242447   
O13      O      0.384910000000     0.709750000000     0.970990000000    -0.241266   
O14      O      0.328030000000     0.633070000000     0.943170000000    -0.247301   
O15      O      0.335300000000     0.721160000000     0.057020000000    -0.244812   
O16      O      0.294430000000     0.708200000000     0.935740000000    -0.247953   
O17      O      0.639350000000     0.326670000000     0.894730000000    -0.241277   
O18      O      0.716140000000     0.380160000000     0.954130000000    -0.235684   
O19      O      0.696820000000     0.293220000000     0.868190000000    -0.244065   
O20      O      0.707890000000     0.289270000000     0.992010000000    -0.248293   
O21      O      0.706040000000     0.332430000000     0.030360000000    -0.222055   
O22      O      0.730620000000     0.328250000000     0.870380000000    -0.247975   
O23      O      0.639460000000     0.322750000000     0.979500000000    -0.242645   
O24      O      0.673880000000     0.383140000000     0.911910000000    -0.245977   
O25      O      0.726760000000     0.691650000000     0.881260000000    -0.240778   
O26      O      0.692280000000     0.719010000000     0.030510000000    -0.237053   
O27      O      0.686060000000     0.634560000000     0.911140000000    -0.246705   
O28      O      0.637710000000     0.694540000000     0.923750000000    -0.236268   
O29      O      0.642620000000     0.679800000000     0.004110000000    -0.21902    
O30      O      0.705760000000     0.634460000000     0.988520000000    -0.218691   
O31      O      0.691160000000     0.724600000000     0.885920000000    -0.221567   
O32      O      0.734530000000     0.698200000000     0.009020000000    -0.219035   
O33      O      0.812360000000     0.138390000000     0.442870000000    -0.239601   
O34      O      0.888830000000     0.203800000000     0.397340000000    -0.24302    
O35      O      0.814840000000     0.184730000000     0.523600000000    -0.223226   
O36      O      0.799730000000     0.217320000000     0.393280000000    -0.246578   
O37      O      0.831350000000     0.195130000000     0.341510000000    -0.245722   
O38      O      0.829150000000     0.229020000000     0.499210000000    -0.243648   
O39      O      0.860470000000     0.135860000000     0.429320000000    -0.247553   
O40      O      0.889140000000     0.196490000000     0.481370000000    -0.242494   
O41      O      0.885720000000     0.810160000000     0.480550000000    -0.242335   
O42      O      0.813040000000     0.883410000000     0.428130000000    -0.236781   
O43      O      0.815600000000     0.791950000000     0.506690000000    -0.247619   
O44      O      0.836290000000     0.799240000000     0.376300000000    -0.245097   
O45      O      0.799220000000     0.830790000000     0.380370000000    -0.24152    
O46      O      0.810280000000     0.836190000000     0.540120000000    -0.245954   
O47      O      0.888020000000     0.847150000000     0.425950000000    -0.222137   
O48      O      0.851220000000     0.884380000000     0.480860000000    -0.218114   
O49      O      0.142310000000     0.808390000000     0.463600000000    -0.238321   
O50      O      0.205960000000     0.882280000000     0.525270000000    -0.217949   
O51      O      0.203610000000     0.790780000000     0.427330000000    -0.223803   
O52      O      0.189690000000     0.807530000000     0.571660000000    -0.243778   
O53      O      0.233790000000     0.820810000000     0.544190000000    -0.222094   
O54      O      0.223210000000     0.833210000000     0.404890000000    -0.241759   
O55      O      0.139130000000     0.851910000000     0.500790000000    -0.243656   
O56      O      0.192380000000     0.884150000000     0.443770000000    -0.241243   
O57      O      0.213470000000     0.135710000000     0.435380000000    -0.242887   
O58      O      0.143760000000     0.214380000000     0.480810000000    -0.223132   
O59      O      0.203480000000     0.189490000000     0.366880000000    -0.243185   
O60      O      0.233890000000     0.204230000000     0.512390000000    -0.232713   
O61      O      0.191880000000     0.199230000000     0.555340000000    -0.232078   
O62      O      0.217640000000     0.226070000000     0.416820000000    -0.221817   
O63      O      0.183750000000     0.134890000000     0.502800000000    -0.246434   
O64      O      0.138490000000     0.177410000000     0.426970000000    -0.249391   
O65      O      0.185630000000     0.919650000000     0.601580000000    -0.0736987  
O66      O      0.233300000000     0.936400000000     0.613420000000    -0.0803923  
O67      O      0.934770000000     0.888580000000     0.377670000000    -0.0780407  
O68      O      0.921270000000     0.896070000000     0.463230000000    -0.0446092  
O69      O      0.891560000000     0.929480000000     0.534780000000    -0.0768443  
O70      O      0.900550000000     0.917500000000     0.448990000000    -0.0447917  
O71      O      0.107340000000     0.221720000000     0.565320000000    -0.0739057  
O72      O      0.092200000000     0.266930000000     0.534950000000    -0.0860176  
O73      O      0.669820000000     0.785000000000     0.803850000000    -0.0869367  
O74      O      0.699400000000     0.784430000000     0.876090000000    -0.0729997  
O75      O      0.810200000000     0.707370000000     0.054590000000    -0.083594   
O76      O      0.782990000000     0.734510000000     0.996520000000    -0.073371   
O77      O      0.778320000000     0.156520000000     0.637000000000    -0.089165   
O78      O      0.827920000000     0.163970000000     0.620620000000    -0.0757872  
O79      O      0.727900000000     0.358320000000     0.155840000000    -0.0871     
O80      O      0.682970000000     0.340530000000     0.127650000000    -0.0747892  
O81      O      0.737340000000     0.577120000000     0.067040000000    -0.0816589  
O82      O      0.690080000000     0.596220000000     0.066400000000    -0.0641334  
O83      O      0.307600000000     0.814330000000     0.596430000000    -0.0842822  
O84      O      0.272110000000     0.850120000000     0.608800000000    -0.0633155  
O85      O      0.237100000000     0.740170000000     0.431930000000    -0.0726479  
O86      O      0.206290000000     0.717600000000     0.373270000000    -0.0864403  
O87      O      0.608820000000     0.636460000000     0.049640000000    -0.0703737  
O88      O      0.591700000000     0.670380000000     0.108700000000    -0.0833322  
O89      O      0.283760000000     0.215860000000     0.889560000000    -0.0884613  
O90      O      0.261900000000     0.258600000000     0.918730000000    -0.0765265  
O91      O      0.261380000000     0.291610000000     0.394980000000    -0.0871536  
O92      O      0.275870000000     0.244210000000     0.414130000000    -0.0752295  
O93      O      0.439640000000     0.369000000000     0.829630000000    -0.0879763  
O94      O      0.423860000000     0.389740000000     0.905970000000    -0.0765831  
O95      O      0.351300000000     0.596150000000     0.097670000000    -0.0743277  
O96      O      0.304380000000     0.581610000000     0.121730000000    -0.0857295  


