data_structure

_audit_creation_method RASPA-1.0
_audit_creation_date 2023-6-5
_audit_author_name 'Poobodin Mano'

_cell_length_a    44.0882
_cell_length_b    45.0501
_cell_length_c    24.8768
_cell_angle_alpha 90.0437
_cell_angle_beta  89.8759
_cell_angle_gamma 90
_cell_volume      49409.6

_symmetry_cell_setting          triclinic
_symmetry_space_group_name_Hall 'P 1'
_symmetry_space_group_name_H-M  'P 1'
_symmetry_Int_Tables_number     1

_symmetry_equiv_pos_as_xyz 'x,y,z'

loop_
_atom_site_label
_atom_site_type_symbol
_atom_site_fract_x
_atom_site_fract_y
_atom_site_fract_z
_atom_site_charge
C1       C      0.400020000000     0.325620000000     0.952880000000     0.345079   
C2       C      0.309090000000     0.296070000000     0.050700000000     0.345132   
C3       C      0.323980000000     0.390310000000     0.963850000000     0.345657   
C4       C      0.307970000000     0.293570000000     0.869540000000     0.34545    
C5       C      0.324530000000     0.608760000000     0.956760000000     0.34569    
C6       C      0.308810000000     0.705780000000     0.048630000000     0.344386   
C7       C      0.399550000000     0.678560000000     0.977580000000     0.347361   
C8       C      0.307230000000     0.695880000000     0.863190000000     0.346      
C9       C      0.623510000000     0.322890000000     0.964660000000     0.348687   
C10      C      0.717390000000     0.296160000000     0.875390000000     0.347616   
C11      C      0.696360000000     0.391190000000     0.956870000000     0.346183   
C12      C      0.715380000000     0.301200000000     0.059140000000     0.346074   
C13      C      0.698040000000     0.609410000000     0.975850000000     0.349623   
C14      C      0.716940000000     0.701510000000     0.891840000000     0.344396   
C15      C      0.622930000000     0.676310000000     0.980500000000     0.345497   
C16      C      0.712380000000     0.699550000000     0.080640000000     0.347601   
C17      C      0.807340000000     0.201990000000     0.554610000000     0.347254   
C18      C      0.826610000000     0.109920000000     0.475540000000     0.345674   
C19      C      0.809000000000     0.200380000000     0.368750000000     0.345056   
C20      C      0.900990000000     0.177480000000     0.452850000000     0.346777   
C21      C      0.898900000000     0.824060000000     0.476320000000     0.346884   
C22      C      0.806340000000     0.803250000000     0.578440000000     0.349224   
C23      C      0.821710000000     0.891880000000     0.480670000000     0.347136   
C24      C      0.807260000000     0.799480000000     0.390400000000     0.345968   
C25      C      0.214340000000     0.801780000000     0.363640000000     0.345538   
C26      C      0.122250000000     0.821370000000     0.475220000000     0.344762   
C27      C      0.212020000000     0.794010000000     0.552680000000     0.347364   
C28      C      0.200750000000     0.888110000000     0.449060000000     0.346603   
C29      C      0.217540000000     0.199190000000     0.367380000000     0.346456   
C30      C      0.199320000000     0.106330000000     0.452400000000     0.347725   
C31      C      0.216990000000     0.197540000000     0.551650000000     0.348272   
C32      C      0.124450000000     0.174160000000     0.456370000000     0.347246   
C33      C      0.228380000000     0.933540000000     0.471940000000     0.0961114  
C34      C      0.184230000000     0.934600000000     0.417150000000     0.0704889  
C35      C      0.229340000000     0.964750000000     0.471160000000    -0.0901534  
C36      C      0.213750000000     0.029450000000     0.492680000000    -0.0799425  
C37      C      0.184820000000     0.965490000000     0.415930000000    -0.0831059  
C38      C      0.206970000000     0.014050000000     0.445210000000     0.0347772  
C39      C      0.207200000000     0.981010000000     0.443820000000     0.0406847  
C40      C      0.211640000000     0.060400000000     0.494150000000     0.0709634  
C41      C      0.196800000000     0.061360000000     0.402630000000     0.0709597  
C42      C      0.198820000000     0.030480000000     0.399670000000    -0.0804037  
C43      C      0.074460000000     0.840520000000     0.511530000000     0.0959389  
C44      C      0.075470000000     0.799690000000     0.450730000000     0.0695085  
C45      C      0.042640000000     0.840120000000     0.510540000000    -0.090867   
C46      C      0.978270000000     0.847330000000     0.470270000000    -0.0807082  
C47      C      0.043830000000     0.798770000000     0.449780000000    -0.082872   
C48      C      0.993450000000     0.820250000000     0.476200000000     0.0346703  
C49      C      0.027080000000     0.819530000000     0.478960000000     0.040491   
C50      C      0.946660000000     0.848070000000     0.469490000000     0.0710051  
C51      C      0.944540000000     0.795780000000     0.479760000000     0.070636   
C52      C      0.976240000000     0.794210000000     0.480270000000    -0.0800801  
C53      C      0.812450000000     0.938410000000     0.432900000000     0.0965024  
C54      C      0.820900000000     0.937490000000     0.527350000000     0.0703665  
C55      C      0.811990000000     0.969580000000     0.434250000000    -0.0903657  
C56      C      0.797730000000     0.034810000000     0.452620000000    -0.080169   
C57      C      0.820470000000     0.968420000000     0.529450000000    -0.0833477  
C58      C      0.817860000000     0.017810000000     0.483350000000     0.034658   
C59      C      0.816500000000     0.984850000000     0.482500000000     0.0407349  
C60      C      0.800610000000     0.065680000000     0.451290000000     0.0709443  
C61      C      0.842410000000     0.063440000000     0.510970000000     0.0707004  
C62      C      0.840140000000     0.032540000000     0.513310000000    -0.0801176  
C63      C      0.948590000000     0.175770000000     0.401740000000     0.0959537  
C64      C      0.948040000000     0.182660000000     0.496610000000     0.0704456  
C65      C      0.980500000000     0.175840000000     0.402460000000    -0.0903447  
C66      C      0.047350000000     0.192550000000     0.413140000000    -0.0802678  
C67      C      0.979590000000     0.182800000000     0.498050000000    -0.0834732  
C68      C      0.029920000000     0.178080000000     0.452320000000     0.0346969  
C69      C      0.996230000000     0.179050000000     0.450840000000     0.0406957  
C70      C      0.078990000000     0.191170000000     0.415250000000     0.0708267  
C71      C      0.076580000000     0.161510000000     0.493850000000     0.0709914  
C72      C      0.044950000000     0.162480000000     0.493030000000    -0.0804076  
C73      C      0.760440000000     0.710190000000     0.832430000000     0.0955894  
C74      C      0.713670000000     0.735700000000     0.820280000000     0.069505   
C75      C      0.772750000000     0.725560000000     0.788380000000    -0.0902974  
C76      C      0.798380000000     0.772560000000     0.713920000000    -0.0803654  
C77      C      0.725540000000     0.751130000000     0.776460000000    -0.0828617  
C78      C      0.768390000000     0.762230000000     0.713090000000     0.0347786  
C79      C      0.755390000000     0.746230000000     0.760070000000     0.0405196  
C80      C      0.810610000000     0.786550000000     0.668730000000     0.0711162  
C81      C      0.764110000000     0.780910000000     0.622110000000     0.0708648  
C82      C      0.751160000000     0.766800000000     0.666560000000    -0.0802052  
C83      C      0.706610000000     0.725540000000     0.166560000000     0.0961186  
C84      C      0.755290000000     0.713760000000     0.130870000000     0.070004   
C85      C      0.720540000000     0.739660000000     0.210440000000    -0.0904113  
C86      C      0.755020000000     0.783170000000     0.280210000000    -0.0803     
C87      C      0.769460000000     0.727690000000     0.174070000000    -0.083022   
C88      C      0.766900000000     0.756510000000     0.260200000000     0.0347754  
C89      C      0.752130000000     0.741060000000     0.214310000000     0.0407105  
C90      C      0.768910000000     0.797290000000     0.323610000000     0.0712308  
C91      C      0.806340000000     0.759570000000     0.327730000000     0.0706621  
C92      C      0.792960000000     0.744800000000     0.284440000000    -0.080054   
C93      C      0.730090000000     0.250860000000     0.825770000000     0.0962837  
C94      C      0.743760000000     0.298660000000     0.792980000000     0.0703099  
C95      C      0.742680000000     0.237870000000     0.779460000000    -0.0903601  
C96      C      0.754760000000     0.217640000000     0.665110000000    -0.0802298  
C97      C      0.756330000000     0.286150000000     0.746790000000    -0.0830295  
C98      C      0.769000000000     0.241750000000     0.690230000000     0.0347765  
C99      C      0.755750000000     0.255460000000     0.739360000000     0.0407272  
C100     C      0.767800000000     0.204710000000     0.619560000000     0.0707434  
C101     C      0.808460000000     0.239110000000     0.622490000000     0.0710489  
C102     C      0.796120000000     0.252510000000     0.668180000000    -0.0801957  
C103     C      0.779530000000     0.197810000000     0.285470000000     0.0954946  
C104     C      0.798860000000     0.243660000000     0.318490000000     0.0697204  
C105     C      0.766210000000     0.212880000000     0.242110000000    -0.0903027  
C106     C      0.725120000000     0.252760000000     0.175840000000    -0.0804401  
C107     C      0.785970000000     0.258930000000     0.275460000000    -0.0831075  
C108     C      0.754860000000     0.259480000000     0.191320000000     0.0347141  
C109     C      0.769240000000     0.243600000000     0.236920000000     0.0405575  
C110     C      0.712120000000     0.267270000000     0.132000000000     0.0709951  
C111     C      0.757180000000     0.295050000000     0.118460000000     0.0707342  
C112     C      0.770810000000     0.281120000000     0.162400000000    -0.0801906  
C113     C      0.684680000000     0.439340000000     0.916140000000     0.0959846  
C114     C      0.715680000000     0.435520000000     0.994040000000     0.069879   
C115     C      0.686670000000     0.470420000000     0.918960000000    -0.0902835  
C116     C      0.705230000000     0.535010000000     0.918130000000    -0.0803819  
C117     C      0.718100000000     0.466330000000     0.997150000000    -0.0829124  
C118     C      0.704030000000     0.517180000000     0.964240000000     0.0348842  
C119     C      0.703200000000     0.484220000000     0.959840000000     0.0406016  
C120     C      0.703720000000     0.565860000000     0.922810000000     0.071418   
C121     C      0.701170000000     0.562090000000     0.017760000000     0.0714249  
C122     C      0.702390000000     0.531160000000     0.014530000000    -0.0800744  
C123     C      0.307090000000     0.706230000000     0.766560000000     0.0958105  
C124     C      0.266830000000     0.722210000000     0.823580000000     0.0700543  
C125     C      0.292800000000     0.719910000000     0.722620000000    -0.0903426  
C126     C      0.248230000000     0.736130000000     0.633440000000    -0.0803839  
C127     C      0.252460000000     0.736060000000     0.780530000000    -0.0833274  
C128     C      0.250720000000     0.750260000000     0.683400000000     0.0347082  
C129     C      0.265470000000     0.735140000000     0.729450000000     0.040676   
C130     C      0.234820000000     0.750950000000     0.590290000000     0.0708166  
C131     C      0.226390000000     0.793410000000     0.644730000000     0.070901   
C132     C      0.239390000000     0.779140000000     0.688840000000    -0.0801409  
C133     C      0.305490000000     0.749590000000     0.106980000000     0.0956039  
C134     C      0.273050000000     0.707890000000     0.119170000000     0.0700145  
C135     C      0.291640000000     0.763630000000     0.151200000000    -0.0902008  
C136     C      0.271650000000     0.779450000000     0.264830000000    -0.0800726  
C137     C      0.259080000000     0.721500000000     0.163010000000    -0.0828946  
C138     C      0.254020000000     0.764080000000     0.227170000000     0.0346105  
C139     C      0.268360000000     0.749610000000     0.179710000000     0.0405556  
C140     C      0.257950000000     0.792180000000     0.309970000000     0.0706553  
C141     C      0.209690000000     0.775260000000     0.281350000000     0.0707769  
C142     C      0.222650000000     0.762240000000     0.235770000000    -0.0800244  
C143     C      0.446640000000     0.665730000000     0.023910000000     0.0965342  
C144     C      0.446680000000     0.696520000000     0.946210000000     0.0703132  
C145     C      0.478500000000     0.666090000000     0.024040000000    -0.0906343  
C146     C      0.543560000000     0.653570000000     0.992450000000    -0.0803419  
C147     C      0.478310000000     0.697250000000     0.945900000000    -0.0828132  
C148     C      0.528320000000     0.680300000000     0.982780000000     0.0347545  
C149     C      0.494610000000     0.681410000000     0.984360000000     0.0407207  
C150     C      0.575180000000     0.652650000000     0.991140000000     0.0709807  
C151     C      0.577240000000     0.704000000000     0.970560000000     0.0708649  
C152     C      0.545550000000     0.705690000000     0.971420000000    -0.07986    
C153     C      0.306460000000     0.251130000000     0.807920000000     0.0957707  
C154     C      0.271680000000     0.291280000000     0.800120000000     0.0699775  
C155     C      0.293350000000     0.237670000000     0.762550000000    -0.0900117  
C156     C      0.273740000000     0.222770000000     0.648810000000    -0.0800389  
C157     C      0.258450000000     0.278260000000     0.755060000000    -0.0827243  
C158     C      0.255570000000     0.237170000000     0.687120000000     0.0347522  
C159     C      0.269310000000     0.251240000000     0.735490000000     0.0405624  
C160     C      0.260470000000     0.209620000000     0.603750000000     0.0708922  
C161     C      0.211650000000     0.224690000000     0.633130000000     0.0709576  
C162     C      0.224150000000     0.237990000000     0.678740000000    -0.0800312  
C163     C      0.313900000000     0.261760000000     0.126550000000     0.0955736  
C164     C      0.268070000000     0.288170000000     0.110130000000     0.0697509  
C165     C      0.300440000000     0.248290000000     0.171550000000    -0.0901815  
C166     C      0.261710000000     0.210130000000     0.244350000000    -0.0803935  
C167     C      0.254360000000     0.274940000000     0.154650000000    -0.0827594  
C168     C      0.256270000000     0.240160000000     0.233350000000     0.0348225  
C169     C      0.270500000000     0.254690000000     0.185900000000     0.0405588  
C170     C      0.248660000000     0.196860000000     0.289450000000     0.0711605  
C171     C      0.224630000000     0.242120000000     0.313090000000     0.0709215  
C172     C      0.237400000000     0.256150000000     0.268340000000    -0.08006    
C173     C      0.448620000000     0.329700000000     0.905350000000     0.0957543  
C174     C      0.446180000000     0.319060000000     0.998970000000     0.0701112  
C175     C      0.480470000000     0.328650000000     0.907740000000    -0.0900914  
C176     C      0.546110000000     0.308870000000     0.918170000000    -0.0802661  
C177     C      0.477690000000     0.317920000000     0.002030000000    -0.0829164  
C178     C      0.528930000000     0.322060000000     0.959150000000     0.0349503  
C179     C      0.495260000000     0.322780000000     0.956240000000     0.0405741  
C180     C      0.577740000000     0.308990000000     0.921020000000     0.0713455  
C181     C      0.575870000000     0.334510000000     0.004360000000     0.071326   
C182     C      0.544220000000     0.334800000000     0.002780000000    -0.0802936  
C183     C      0.322080000000     0.437550000000     0.012720000000     0.0956419  
C184     C      0.315970000000     0.435370000000     0.917780000000     0.0698141  
C185     C      0.320620000000     0.468700000000     0.010480000000    -0.0900007  
C186     C      0.303400000000     0.533600000000     0.998480000000    -0.0799516  
C187     C      0.314260000000     0.466220000000     0.914890000000    -0.0829383  
C188     C      0.317360000000     0.516360000000     0.958530000000     0.0346732  
C189     C      0.317090000000     0.483340000000     0.961360000000     0.0405213  
C190     C      0.305540000000     0.564540000000     0.996770000000     0.0706952  
C191     C      0.334130000000     0.561930000000     0.916100000000     0.070712   
C192     C      0.332550000000     0.530980000000     0.916670000000    -0.0799856  
Cd1      Cd     0.334290000000     0.326640000000     0.958280000000     0.511567   
Cd2      Cd     0.334770000000     0.672270000000     0.960310000000     0.510795   
Cd3      Cd     0.688830000000     0.327400000000     0.964210000000     0.511328   
Cd4      Cd     0.688350000000     0.672620000000     0.983190000000     0.510121   
Cd5      Cd     0.835600000000     0.173160000000     0.463360000000     0.510467   
Cd6      Cd     0.833470000000     0.828680000000     0.482770000000     0.509811   
Cd7      Cd     0.187560000000     0.825410000000     0.460780000000     0.510737   
Cd8      Cd     0.189900000000     0.169780000000     0.458220000000     0.509987   
H1       H      0.216610000000     0.071440000000     0.531860000000     0.0357658  
H2       H      0.165810000000     0.923950000000     0.395650000000     0.0367146  
H3       H      0.193920000000     0.019590000000     0.361850000000     0.0557965  
H4       H      0.167100000000     0.977110000000     0.394420000000     0.0568003  
H5       H      0.219840000000     0.017690000000     0.529040000000     0.0564968  
H6       H      0.247520000000     0.976480000000     0.491480000000     0.0596282  
H7       H      0.190090000000     0.073180000000     0.366600000000     0.0357202  
H8       H      0.935850000000     0.869560000000     0.465140000000     0.0355104  
H9       H      0.087260000000     0.783430000000     0.426220000000     0.0372978  
H10      H      0.987160000000     0.772830000000     0.485080000000     0.0562361  
H11      H      0.032570000000     0.782380000000     0.424950000000     0.0571383  
H12      H      0.990760000000     0.867920000000     0.466110000000     0.0566422  
H13      H      0.029770000000     0.855760000000     0.534780000000     0.0600689  
H14      H      0.931930000000     0.775240000000     0.483840000000     0.0358588  
H15      H      0.784790000000     0.078000000000     0.426550000000     0.0367682  
H16      H      0.824660000000     0.925990000000     0.565040000000     0.0364571  
H17      H      0.856330000000     0.020250000000     0.537240000000     0.0562008  
H18      H      0.823430000000     0.979390000000     0.567850000000     0.0568799  
H19      H      0.779870000000     0.024350000000     0.429540000000     0.0561822  
H20      H      0.808640000000     0.982070000000     0.397420000000     0.0600463  
H21      H      0.860300000000     0.073950000000     0.534000000000     0.0352438  
H22      H      0.091690000000     0.202680000000     0.384240000000     0.035713   
H23      H      0.936510000000     0.185450000000     0.534840000000     0.0375715  
H24      H      0.032370000000     0.150660000000     0.523730000000     0.0562663  
H25      H      0.990880000000     0.185920000000     0.536270000000     0.0572049  
H26      H      0.036650000000     0.205150000000     0.381340000000     0.0561354  
H27      H      0.993190000000     0.172860000000     0.365400000000     0.0597005  
H28      H      0.087300000000     0.149050000000     0.525890000000     0.0357065  
H29      H      0.833950000000     0.794040000000     0.670900000000     0.035567   
H30      H      0.690380000000     0.740660000000     0.831180000000     0.0371231  
H31      H      0.728000000000     0.758940000000     0.663940000000     0.0561583  
H32      H      0.711360000000     0.767150000000     0.755970000000     0.0568155  
H33      H      0.812360000000     0.769960000000     0.749350000000     0.0561954  
H34      H      0.795810000000     0.721040000000     0.775340000000     0.059739   
H35      H      0.750120000000     0.783700000000     0.586670000000     0.0354183  
H36      H      0.758940000000     0.817860000000     0.337870000000     0.0364186  
H37      H      0.770060000000     0.704130000000     0.100600000000     0.0370967  
H38      H      0.802740000000     0.724090000000     0.270680000000     0.056055   
H39      H      0.794010000000     0.728440000000     0.175200000000     0.0568888  
H40      H      0.735240000000     0.793310000000     0.262150000000     0.0563644  
H41      H      0.706750000000     0.749240000000     0.242230000000     0.0597534  
H42      H      0.826350000000     0.749700000000     0.345610000000     0.035659   
H43      H      0.756120000000     0.186050000000     0.601420000000     0.0353107  
H44      H      0.744610000000     0.322670000000     0.796000000000     0.0369806  
H45      H      0.808110000000     0.270860000000     0.686600000000     0.0561475  
H46      H      0.766000000000     0.300660000000     0.716580000000     0.0569446  
H47      H      0.733510000000     0.208900000000     0.680240000000     0.0562647  
H48      H      0.742850000000     0.213890000000     0.774960000000     0.0597077  
H49      H      0.829600000000     0.247970000000     0.606960000000     0.036269   
H50      H      0.689090000000     0.261330000000     0.121210000000     0.0360797  
H51      H      0.811400000000     0.256880000000     0.347350000000     0.0367104  
H52      H      0.793920000000     0.286820000000     0.172910000000     0.0564211  
H53      H      0.788710000000     0.282780000000     0.273000000000     0.0571523  
H54      H      0.711870000000     0.236460000000     0.197620000000     0.0566534  
H55      H      0.753630000000     0.200660000000     0.211800000000     0.0600178  
H56      H      0.770390000000     0.311410000000     0.096660000000     0.035912   
H57      H      0.704270000000     0.578810000000     0.886090000000     0.0355525  
H58      H      0.727550000000     0.422900000000     0.024570000000     0.0371003  
H59      H      0.701110000000     0.518330000000     0.051260000000     0.0561415  
H60      H      0.731640000000     0.476030000000     0.028910000000     0.0567073  
H61      H      0.707170000000     0.525250000000     0.878470000000     0.0559341  
H62      H      0.674690000000     0.483980000000     0.889870000000     0.0595493  
H63      H      0.699360000000     0.572000000000     0.057370000000     0.035809   
H64      H      0.233360000000     0.739280000000     0.552230000000     0.0354362  
H65      H      0.255660000000     0.723890000000     0.862350000000     0.0363808  
H66      H      0.241100000000     0.790910000000     0.726710000000     0.0568051  
H67      H      0.231070000000     0.747330000000     0.787290000000     0.057181   
H68      H      0.256410000000     0.713660000000     0.627780000000     0.0563387  
H69      H      0.303120000000     0.719060000000     0.682970000000     0.0601713  
H70      H      0.218180000000     0.815880000000     0.650420000000     0.0364757  
H71      H      0.272450000000     0.803620000000     0.338400000000     0.0357597  
H72      H      0.264880000000     0.685950000000     0.108570000000     0.0379822  
H73      H      0.208100000000     0.750940000000     0.207310000000     0.0561518  
H74      H      0.241360000000     0.709670000000     0.184310000000     0.0571619  
H75      H      0.296020000000     0.781140000000     0.260130000000     0.05623    
H76      H      0.298750000000     0.785730000000     0.163220000000     0.0595488  
H77      H      0.185360000000     0.773230000000     0.286610000000     0.0362474  
H78      H      0.586020000000     0.631480000000     0.998900000000     0.0356203  
H79      H      0.435320000000     0.708640000000     0.914420000000     0.0377849  
H80      H      0.534680000000     0.726860000000     0.964060000000     0.0561958  
H81      H      0.489890000000     0.709460000000     0.914480000000     0.0572402  
H82      H      0.531150000000     0.633290000000     0.000460000000     0.0565068  
H83      H      0.490910000000     0.654610000000     0.055440000000     0.0599903  
H84      H      0.589810000000     0.724150000000     0.962050000000     0.0362593  
H85      H      0.275330000000     0.198760000000     0.575060000000     0.0356124  
H86      H      0.262380000000     0.312450000000     0.812870000000     0.0373474  
H87      H      0.209170000000     0.248500000000     0.707580000000     0.056058   
H88      H      0.240050000000     0.289740000000     0.735120000000     0.056884   
H89      H      0.298160000000     0.221960000000     0.653150000000     0.056289   
H90      H      0.301540000000     0.216250000000     0.748710000000     0.0596531  
H91      H      0.187240000000     0.225760000000     0.628290000000     0.0358046  
H92      H      0.253440000000     0.173560000000     0.296390000000     0.0360574  
H93      H      0.254280000000     0.303580000000     0.087310000000     0.0367952  
H94      H      0.232860000000     0.279490000000     0.261750000000     0.0562199  
H95      H      0.230990000000     0.280320000000     0.163980000000     0.0568969  
H96      H      0.275750000000     0.196780000000     0.217960000000     0.0562114  
H97      H      0.313490000000     0.233040000000     0.196150000000     0.0596093  
H98      H      0.210250000000     0.255270000000     0.339320000000     0.0357856  
H99      H      0.590210000000     0.298690000000     0.888330000000     0.0361624  
H100     H      0.433890000000     0.315000000000     0.036060000000     0.0380732  
H101     H      0.531860000000     0.345510000000     0.035100000000     0.0561824  
H102     H      0.488190000000     0.312910000000     0.040300000000     0.0571042  
H103     H      0.535230000000     0.298320000000     0.884150000000     0.0564764  
H104     H      0.493880000000     0.332930000000     0.871920000000     0.0597531  
H105     H      0.586830000000     0.344910000000     0.038510000000     0.0355192  
H106     H      0.294750000000     0.577040000000     0.028790000000     0.0362055  
H107     H      0.314000000000     0.423410000000     0.880090000000     0.0372606  
H108     H      0.343960000000     0.518620000000     0.885230000000     0.0561737  
H109     H      0.310840000000     0.476570000000     0.876090000000     0.0567515  
H110     H      0.290920000000     0.523310000000     0.031060000000     0.0559183  
H111     H      0.322960000000     0.481660000000     0.047040000000     0.0596647  
H112     H      0.346540000000     0.572320000000     0.883450000000     0.0358034  
N1       N      0.205080000000     0.918430000000     0.446030000000    -0.179464   
N2       N      0.202780000000     0.076150000000     0.449680000000    -0.178644   
N3       N      0.091020000000     0.820690000000     0.480070000000    -0.179245   
N4       N      0.929930000000     0.822560000000     0.474900000000    -0.178557   
N5       N      0.817950000000     0.922310000000     0.479590000000    -0.179447   
N6       N      0.823080000000     0.079800000000     0.479580000000    -0.178317   
N7       N      0.932260000000     0.178720000000     0.449410000000    -0.179473   
N8       N      0.093440000000     0.175690000000     0.455210000000    -0.178768   
N9       N      0.730650000000     0.715410000000     0.848650000000    -0.179092   
N10      N      0.793680000000     0.790430000000     0.623050000000    -0.179192   
N11      N      0.724190000000     0.712840000000     0.126080000000    -0.179984   
N12      N      0.794290000000     0.785520000000     0.347280000000    -0.178414   
N13      N      0.730300000000     0.281560000000     0.832200000000    -0.179869   
N14      N      0.794500000000     0.215300000000     0.598620000000    -0.17892    
N15      N      0.795810000000     0.213390000000     0.324240000000    -0.179024   
N16      N      0.728150000000     0.288010000000     0.103220000000    -0.178376   
N17      N      0.698800000000     0.421760000000     0.954720000000    -0.179267   
N18      N      0.701240000000     0.579240000000     0.972190000000    -0.178756   
N19      N      0.294150000000     0.707750000000     0.817590000000    -0.179583   
N20      N      0.224250000000     0.779450000000     0.595810000000    -0.178797   
N21      N      0.296190000000     0.721380000000     0.091040000000    -0.178745   
N22      N      0.227250000000     0.789900000000     0.318330000000    -0.178178   
N23      N      0.430650000000     0.680260000000     0.983570000000    -0.179607   
N24      N      0.591880000000     0.677690000000     0.980550000000    -0.178006   
N25      N      0.295730000000     0.278350000000     0.826460000000    -0.179212   
N26      N      0.229670000000     0.210590000000     0.596010000000    -0.178734   
N27      N      0.297520000000     0.281840000000     0.095480000000    -0.178997   
N28      N      0.230280000000     0.212730000000     0.323530000000    -0.178436   
N29      N      0.431350000000     0.324900000000     0.951450000000    -0.179083   
N30      N      0.592470000000     0.321950000000     0.963550000000    -0.178755   
N31      N      0.320500000000     0.420790000000     0.965740000000    -0.179365   
N32      N      0.321160000000     0.578530000000     0.956300000000    -0.178368   
O1       O      0.335350000000     0.291040000000     0.032420000000    -0.242251   
O2       O      0.296330000000     0.317400000000     0.887240000000    -0.246702   
O3       O      0.385390000000     0.321680000000     0.996180000000    -0.24378    
O4       O      0.329330000000     0.374680000000     0.004950000000    -0.247293   
O5       O      0.323010000000     0.376010000000     0.919990000000    -0.246824   
O6       O      0.383780000000     0.330100000000     0.911800000000    -0.245332   
O7       O      0.294000000000     0.315330000000     0.024890000000    -0.248356   
O8       O      0.331810000000     0.285350000000     0.893470000000    -0.246413   
O9       O      0.299370000000     0.680180000000     0.035450000000    -0.241592   
O10      O      0.333870000000     0.685520000000     0.864070000000    -0.242627   
O11      O      0.314180000000     0.624760000000     0.994460000000    -0.243438   
O12      O      0.383110000000     0.661250000000     0.005060000000    -0.249336   
O13      O      0.385570000000     0.693330000000     0.942020000000    -0.244319   
O14      O      0.339010000000     0.622350000000     0.920320000000    -0.25037    
O15      O      0.330490000000     0.715620000000     0.020330000000    -0.246781   
O16      O      0.293460000000     0.695320000000     0.907920000000    -0.252157   
O17      O      0.719930000000     0.323960000000     0.881700000000    -0.24952    
O18      O      0.729840000000     0.319530000000     0.030160000000    -0.246581   
O19      O      0.639540000000     0.312320000000     0.926900000000    -0.247388   
O20      O      0.681290000000     0.376270000000     0.923170000000    -0.246441   
O21      O      0.708550000000     0.376080000000     0.994040000000    -0.24555    
O22      O      0.637910000000     0.335010000000     0.002880000000    -0.248838   
O23      O      0.701580000000     0.283160000000     0.910670000000    -0.246597   
O24      O      0.688540000000     0.295400000000     0.044320000000    -0.248038   
O25      O      0.730720000000     0.683560000000     0.922200000000    -0.244269   
O26      O      0.684480000000     0.699820000000     0.069250000000    -0.24905    
O27      O      0.695960000000     0.625700000000     0.934480000000    -0.248497   
O28      O      0.636940000000     0.652330000000     0.989990000000    -0.249637   
O29      O      0.639380000000     0.698890000000     0.971580000000    -0.240837   
O30      O      0.696050000000     0.622620000000     0.020760000000    -0.247275   
O31      O      0.689410000000     0.706100000000     0.904220000000    -0.245941   
O32      O      0.729080000000     0.686670000000     0.046380000000    -0.249173   
O33      O      0.809590000000     0.125670000000     0.446120000000    -0.241385   
O34      O      0.884020000000     0.172360000000     0.412920000000    -0.248184   
O35      O      0.795680000000     0.179420000000     0.532390000000    -0.252471   
O36      O      0.822390000000     0.215540000000     0.404530000000    -0.249882   
O37      O      0.808510000000     0.172730000000     0.377250000000    -0.241067   
O38      O      0.831850000000     0.211270000000     0.534070000000    -0.246276   
O39      O      0.847560000000     0.123640000000     0.499920000000    -0.250282   
O40      O      0.887220000000     0.180720000000     0.497230000000    -0.245006   
O41      O      0.833750000000     0.811610000000     0.577230000000    -0.249788   
O42      O      0.796170000000     0.822980000000     0.410310000000    -0.244398   
O43      O      0.882430000000     0.801330000000     0.483320000000    -0.244231   
O44      O      0.824360000000     0.877650000000     0.524440000000    -0.248715   
O45      O      0.824360000000     0.876400000000     0.438460000000    -0.241127   
O46      O      0.884930000000     0.848470000000     0.471750000000    -0.251202   
O47      O      0.791490000000     0.807030000000     0.535500000000    -0.252356   
O48      O      0.830860000000     0.789550000000     0.413170000000    -0.248081   
O49      O      0.136670000000     0.803040000000     0.446060000000    -0.244126   
O50      O      0.215750000000     0.871500000000     0.480270000000    -0.24175    
O51      O      0.186150000000     0.799730000000     0.373190000000    -0.24387    
O52      O      0.209020000000     0.781700000000     0.507240000000    -0.251893   
O53      O      0.203400000000     0.820750000000     0.555550000000    -0.246649   
O54      O      0.229940000000     0.815090000000     0.398970000000    -0.249667   
O55      O      0.138500000000     0.840860000000     0.497590000000    -0.247074   
O56      O      0.180070000000     0.875130000000     0.422580000000    -0.25006    
O57      O      0.189800000000     0.121310000000     0.412810000000    -0.24765    
O58      O      0.140880000000     0.186810000000     0.421370000000    -0.247146   
O59      O      0.222520000000     0.172160000000     0.378260000000    -0.246878   
O60      O      0.232760000000     0.183770000000     0.517060000000    -0.249745   
O61      O      0.188740000000     0.198440000000     0.542760000000    -0.249657   
O62      O      0.199890000000     0.212820000000     0.399250000000    -0.246613   
O63      O      0.204800000000     0.120890000000     0.494910000000    -0.247957   
O64      O      0.138470000000     0.159780000000     0.492300000000    -0.249144   
S1       S      0.255640000000     0.917200000000     0.501770000000     0.0104202  
S2       S      0.089640000000     0.864190000000     0.550880000000     0.00923292 
S3       S      0.805180000000     0.923310000000     0.376380000000     0.010309   
S4       S      0.933040000000     0.172530000000     0.344250000000     0.00839552 
S5       S      0.782210000000     0.686670000000     0.860710000000     0.0106007  
S6       S      0.670470000000     0.724280000000     0.167480000000     0.00881753 
S7       S      0.717120000000     0.228530000000     0.869900000000     0.0091719  
S8       S      0.774480000000     0.162770000000     0.287100000000     0.0119817  
S9       S      0.665490000000     0.426210000000     0.867320000000     0.00926908 
S10      S      0.337560000000     0.688510000000     0.753740000000     0.0107818  
S11      S      0.331560000000     0.767840000000     0.077270000000     0.00904841 
S12      S      0.430680000000     0.649060000000     0.072910000000     0.00822442 
S13      S      0.332910000000     0.233020000000     0.836700000000     0.00989608 
S14      S      0.348350000000     0.253050000000     0.114880000000     0.0118236  
S15      S      0.434270000000     0.336880000000     0.848050000000     0.00973745 
S16      S      0.325490000000     0.423330000000     0.071070000000     0.00944345 


