data_structure

_audit_creation_method RASPA-1.0
_audit_creation_date 2023-6-5
_audit_author_name 'Poobodin Mano'

_cell_length_a    44.5396
_cell_length_b    44.5984
_cell_length_c    24.7651
_cell_angle_alpha 90.043
_cell_angle_beta  89.8767
_cell_angle_gamma 90
_cell_volume      49193.1

_symmetry_cell_setting          triclinic
_symmetry_space_group_name_Hall 'P 1'
_symmetry_space_group_name_H-M  'P 1'
_symmetry_Int_Tables_number     1

_symmetry_equiv_pos_as_xyz 'x,y,z'

loop_
_atom_site_label
_atom_site_type_symbol
_atom_site_fract_x
_atom_site_fract_y
_atom_site_fract_z
_atom_site_charge
C1       C      0.396150000000     0.326300000000     0.949190000000     0.345916   
C2       C      0.303380000000     0.306940000000     0.049010000000     0.347362   
C3       C      0.322360000000     0.395300000000     0.952000000000     0.348375   
C4       C      0.305170000000     0.300640000000     0.861300000000     0.346971   
C5       C      0.324830000000     0.615080000000     0.954450000000     0.346507   
C6       C      0.309940000000     0.708150000000     0.061150000000     0.346168   
C7       C      0.398100000000     0.688310000000     0.979220000000     0.346536   
C8       C      0.305150000000     0.703020000000     0.871970000000     0.346231   
C9       C      0.616720000000     0.327120000000     0.963420000000     0.347258   
C10      C      0.710380000000     0.305970000000     0.878320000000     0.346886   
C11      C      0.687390000000     0.397560000000     0.978560000000     0.347315   
C12      C      0.708240000000     0.304020000000     0.063620000000     0.347132   
C13      C      0.687570000000     0.617900000000     0.990930000000     0.345917   
C14      C      0.706950000000     0.710650000000     0.890870000000     0.347343   
C15      C      0.618160000000     0.691310000000     0.986010000000     0.348344   
C16      C      0.712580000000     0.708930000000     0.078420000000     0.347085   
C17      C      0.805000000000     0.210880000000     0.561990000000     0.346308   
C18      C      0.827250000000     0.116890000000     0.478700000000     0.346732   
C19      C      0.803190000000     0.209130000000     0.378850000000     0.34635    
C20      C      0.897250000000     0.186590000000     0.461630000000     0.346661   
C21      C      0.898740000000     0.825100000000     0.481000000000     0.348109   
C22      C      0.804020000000     0.805510000000     0.577700000000     0.346508   
C23      C      0.827800000000     0.896680000000     0.494010000000     0.345873   
C24      C      0.809450000000     0.803890000000     0.391170000000     0.346821   
C25      C      0.213390000000     0.802600000000     0.375470000000     0.346467   
C26      C      0.119300000000     0.824790000000     0.471840000000     0.347073   
C27      C      0.211080000000     0.799920000000     0.558640000000     0.346459   
C28      C      0.189280000000     0.894240000000     0.463610000000     0.347103   
C29      C      0.208960000000     0.209380000000     0.362040000000     0.346434   
C30      C      0.189550000000     0.114500000000     0.457460000000     0.348137   
C31      C      0.210610000000     0.203470000000     0.548510000000     0.346907   
C32      C      0.117770000000     0.185430000000     0.445850000000     0.345934   
C33      C      0.181080000000     0.971710000000     0.417440000000    -0.0810037  
C34      C      0.193620000000     0.987710000000     0.460600000000     0.0364628  
C35      C      0.205240000000     0.971540000000     0.504330000000    -0.0809112  
C36      C      0.203820000000     0.940250000000     0.504510000000     0.0711461  
C37      C      0.180130000000     0.940440000000     0.418860000000     0.0711734  
C38      C      0.193960000000     0.021060000000     0.460350000000     0.0365234  
C39      C      0.199400000000     0.036950000000     0.412510000000    -0.0810962  
C40      C      0.198240000000     0.068230000000     0.412450000000     0.0714711  
C41      C      0.187250000000     0.068640000000     0.506170000000     0.0711659  
C42      C      0.188110000000     0.037350000000     0.507650000000    -0.0809844  
C43      C      0.976520000000     0.815200000000     0.524740000000    -0.0810487  
C44      C      0.992300000000     0.820640000000     0.476730000000     0.0365059  
C45      C      0.975870000000     0.826560000000     0.429710000000    -0.0809414  
C46      C      0.944530000000     0.827450000000     0.431650000000     0.0710911  
C47      C      0.945210000000     0.816380000000     0.525270000000     0.0714144  
C48      C      0.025700000000     0.820900000000     0.475990000000     0.036492   
C49      C      0.041870000000     0.833330000000     0.519030000000    -0.0810246  
C50      C      0.073190000000     0.834140000000     0.517210000000     0.0711777  
C51      C      0.073070000000     0.810560000000     0.431380000000     0.0712205  
C52      C      0.041730000000     0.809280000000     0.431950000000    -0.0809097  
C53      C      0.814340000000     0.038250000000     0.442760000000    -0.0806379  
C54      C      0.823230000000     0.023550000000     0.490130000000     0.0363595  
C55      C      0.832640000000     0.040990000000     0.534030000000    -0.0810371  
C56      C      0.833550000000     0.072190000000     0.529650000000     0.0708792  
C57      C      0.815470000000     0.069530000000     0.439810000000     0.0709336  
C58      C      0.823580000000     0.990210000000     0.493170000000     0.0363342  
C59      C      0.800860000000     0.973040000000     0.469170000000    -0.0807298  
C60      C      0.802310000000     0.941740000000     0.470650000000     0.071043   
C61      C      0.847840000000     0.943910000000     0.519920000000     0.0707929  
C62      C      0.847110000000     0.975200000000     0.519160000000    -0.0808522  
C63      C      0.041350000000     0.212540000000     0.470950000000    -0.0807271  
C64      C      0.024120000000     0.189870000000     0.446930000000     0.0363336  
C65      C      0.039120000000     0.166310000000     0.420880000000    -0.0808425  
C66      C      0.070450000000     0.165500000000     0.420040000000     0.0708188  
C67      C      0.072690000000     0.211010000000     0.469410000000     0.0710177  
C68      C      0.990740000000     0.190310000000     0.450040000000     0.036355   
C69      C      0.976000000000     0.199290000000     0.497440000000    -0.0806556  
C70      C      0.944670000000     0.198260000000     0.500440000000     0.0709234  
C71      C      0.942040000000     0.180100000000     0.410590000000     0.0708959  
C72      C      0.973290000000     0.180910000000     0.406160000000    -0.0810008  
C73      C      0.741290000000     0.720070000000     0.757520000000    -0.0810836  
C74      C      0.745770000000     0.751160000000     0.755840000000     0.0364552  
C75      C      0.736280000000     0.768410000000     0.799970000000    -0.0809909  
C76      C      0.723110000000     0.754510000000     0.844650000000     0.0709132  
C77      C      0.727950000000     0.706920000000     0.802770000000     0.0712062  
C78      C      0.760820000000     0.765410000000     0.708790000000     0.0363884  
C79      C      0.785920000000     0.751940000000     0.684770000000    -0.0810438  
C80      C      0.800100000000     0.765720000000     0.641030000000     0.0711723  
C81      C      0.765170000000     0.805820000000     0.643840000000     0.0707232  
C82      C      0.750500000000     0.792700000000     0.687830000000    -0.0808589  
C83      C      0.766370000000     0.721950000000     0.187680000000    -0.0809651  
C84      C      0.755510000000     0.748790000000     0.209780000000     0.0365001  
C85      C      0.729900000000     0.761810000000     0.186930000000    -0.0811918  
C86      C      0.715840000000     0.748110000000     0.143100000000     0.0712971  
C87      C      0.751750000000     0.708860000000     0.143670000000     0.0708187  
C88      C      0.770570000000     0.763130000000     0.256650000000     0.0364009  
C89      C      0.781180000000     0.745850000000     0.299810000000    -0.0809121  
C90      C      0.794350000000     0.759840000000     0.344340000000     0.0707613  
C91      C      0.787300000000     0.807570000000     0.304210000000     0.0712513  
C92      C      0.773970000000     0.794340000000     0.259130000000    -0.0810958  
C93      C      0.720390000000     0.262180000000     0.754550000000    -0.0809245  
C94      C      0.750990000000     0.266460000000     0.743710000000     0.0364107  
C95      C      0.767640000000     0.284560000000     0.779000000000    -0.0806097  
C96      C      0.753710000000     0.297690000000     0.823820000000     0.0708594  
C97      C      0.707240000000     0.275550000000     0.799760000000     0.0711745  
C98      C      0.765380000000     0.251920000000     0.696070000000     0.0363721  
C99      C      0.757270000000     0.222800000000     0.680550000000    -0.080848   
C100     C      0.770680000000     0.209500000000     0.635530000000     0.0710362  
C101     C      0.800270000000     0.252920000000     0.620730000000     0.0707734  
C102     C      0.787220000000     0.266960000000     0.665500000000    -0.0806098  
C103     C      0.791370000000     0.256900000000     0.260690000000    -0.0808325  
C104     C      0.762170000000     0.248920000000     0.245330000000     0.0363535  
C105     C      0.747050000000     0.227160000000     0.275870000000    -0.0805274  
C106     C      0.761090000000     0.214040000000     0.320450000000     0.0707398  
C107     C      0.804660000000     0.243430000000     0.305530000000     0.0710909  
C108     C      0.747650000000     0.263350000000     0.197860000000     0.0363867  
C109     C      0.752040000000     0.293890000000     0.187140000000    -0.0808497  
C110     C      0.738700000000     0.307070000000     0.142070000000     0.0711119  
C111     C      0.716350000000     0.260740000000     0.117920000000     0.0708436  
C112     C      0.729460000000     0.246790000000     0.162590000000    -0.0805543  
C113     C      0.703770000000     0.475700000000     0.943500000000    -0.0806572  
C114     C      0.691600000000     0.490960000000     0.987970000000     0.0363424  
C115     C      0.679020000000     0.474050000000     0.029970000000    -0.081121   
C116     C      0.678150000000     0.442830000000     0.026390000000     0.0710758  
C117     C      0.702560000000     0.444390000000     0.941280000000     0.0709333  
C118     C      0.691110000000     0.524320000000     0.989890000000     0.0363326  
C119     C      0.715500000000     0.541320000000     0.971260000000    -0.0807521  
C120     C      0.714130000000     0.572660000000     0.972440000000     0.070985   
C121     C      0.665250000000     0.570770000000     0.010340000000     0.0709183  
C122     C      0.665850000000     0.539500000000     0.009750000000    -0.0809533  
C123     C      0.222640000000     0.747730000000     0.670760000000    -0.0809408  
C124     C      0.250520000000     0.757230000000     0.690550000000     0.0364164  
C125     C      0.264800000000     0.781400000000     0.665070000000    -0.0809575  
C126     C      0.251290000000     0.795390000000     0.620980000000     0.0710533  
C127     C      0.209760000000     0.762260000000     0.626540000000     0.0709519  
C128     C      0.264650000000     0.742160000000     0.737600000000     0.0365292  
C129     C      0.247380000000     0.733160000000     0.782110000000    -0.0808905  
C130     C      0.261240000000     0.719780000000     0.826550000000     0.0710074  
C131     C      0.308760000000     0.723590000000     0.783760000000     0.0712278  
C132     C      0.295660000000     0.737000000000     0.738710000000    -0.0811105  
C133     C      0.265530000000     0.790770000000     0.262930000000    -0.0810426  
C134     C      0.255720000000     0.763090000000     0.242830000000     0.0364958  
C135     C      0.231330000000     0.749040000000     0.268180000000    -0.081026   
C136     C      0.217460000000     0.762580000000     0.312500000000     0.0710889  
C137     C      0.251100000000     0.803690000000     0.307360000000     0.0710099  
C138     C      0.270740000000     0.748870000000     0.195660000000     0.0364921  
C139     C      0.280080000000     0.766070000000     0.151350000000    -0.0808629  
C140     C      0.293460000000     0.752140000000     0.106840000000     0.0709649  
C141     C      0.288970000000     0.704670000000     0.149160000000     0.0712641  
C142     C      0.275560000000     0.717840000000     0.194280000000    -0.0811291  
C143     C      0.474740000000     0.713710000000     0.951440000000    -0.0810274  
C144     C      0.491340000000     0.695660000000     0.986720000000     0.0363814  
C145     C      0.475850000000     0.676040000000     0.021030000000    -0.0810907  
C146     C      0.444590000000     0.674280000000     0.018670000000     0.0710706  
C147     C      0.443470000000     0.711470000000     0.950320000000     0.0710237  
C148     C      0.524670000000     0.696470000000     0.986640000000     0.0365382  
C149     C      0.540740000000     0.697420000000     0.937960000000    -0.0810359  
C150     C      0.572080000000     0.696210000000     0.938480000000     0.0712197  
C151     C      0.572050000000     0.694080000000     0.034160000000     0.0716272  
C152     C      0.540740000000     0.695150000000     0.035120000000    -0.0814381  
C153     C      0.292690000000     0.246970000000     0.751540000000    -0.0808471  
C154     C      0.265510000000     0.257350000000     0.730120000000     0.036428   
C155     C      0.252070000000     0.282590000000     0.753630000000    -0.0811745  
C156     C      0.265710000000     0.296770000000     0.797390000000     0.0713883  
C157     C      0.305710000000     0.261690000000     0.795510000000     0.0706673  
C158     C      0.251260000000     0.242220000000     0.683240000000     0.0364571  
C159     C      0.268580000000     0.232160000000     0.639550000000    -0.0809887  
C160     C      0.254630000000     0.219000000000     0.594970000000     0.0708524  
C161     C      0.206880000000     0.224960000000     0.636110000000     0.0712044  
C162     C      0.220070000000     0.238250000000     0.681260000000    -0.0811259  
C163     C      0.221540000000     0.263100000000     0.252460000000    -0.0809766  
C164     C      0.248920000000     0.252960000000     0.231240000000     0.03644    
C165     C      0.262530000000     0.227920000000     0.254930000000    -0.0810904  
C166     C      0.248800000000     0.213620000000     0.298590000000     0.0712224  
C167     C      0.208480000000     0.248310000000     0.296360000000     0.0707745  
C168     C      0.263080000000     0.268090000000     0.184220000000     0.036385   
C169     C      0.245730000000     0.277500000000     0.140270000000    -0.0809507  
C170     C      0.259560000000     0.290700000000     0.095550000000     0.0708396  
C171     C      0.307270000000     0.286110000000     0.137080000000     0.0711767  
C172     C      0.294190000000     0.272740000000     0.182350000000    -0.0810222  
C173     C      0.472840000000     0.298600000000     0.968980000000    -0.0806802  
C174     C      0.489850000000     0.323160000000     0.951240000000     0.0363412  
C175     C      0.474650000000     0.348460000000     0.931950000000    -0.081022   
C176     C      0.443340000000     0.348940000000     0.931030000000     0.0709025  
C177     C      0.441470000000     0.299830000000     0.967470000000     0.0709241  
C178     C      0.523240000000     0.322770000000     0.953410000000     0.0363919  
C179     C      0.538390000000     0.310470000000     0.997740000000    -0.0807277  
C180     C      0.569730000000     0.311760000000     0.000200000000     0.0709487  
C181     C      0.571530000000     0.336530000000     0.915580000000     0.0710282  
C182     C      0.540280000000     0.335590000000     0.911790000000    -0.081169   
C183     C      0.318710000000     0.472190000000     0.901150000000    -0.0815264  
C184     C      0.316890000000     0.488630000000     0.949250000000     0.0366268  
C185     C      0.315540000000     0.472980000000     0.998230000000    -0.0811214  
C186     C      0.316850000000     0.441690000000     0.998420000000     0.0712611  
C187     C      0.319860000000     0.440940000000     0.902810000000     0.0716837  
C188     C      0.317620000000     0.521910000000     0.948470000000     0.0363404  
C189     C      0.337550000000     0.537160000000     0.914320000000    -0.0810008  
C190     C      0.339250000000     0.568390000000     0.916110000000     0.0709511  
C191     C      0.301380000000     0.569970000000     0.983520000000     0.07106    
C192     C      0.299190000000     0.538730000000     0.982950000000    -0.081078   
Cd1      Cd     0.331390000000     0.331250000000     0.952920000000     0.509441   
Cd2      Cd     0.334280000000     0.678870000000     0.966590000000     0.510182   
Cd3      Cd     0.681270000000     0.333100000000     0.971030000000     0.509565   
Cd4      Cd     0.682340000000     0.682540000000     0.986570000000     0.509448   
Cd5      Cd     0.832670000000     0.181370000000     0.470260000000     0.509576   
Cd6      Cd     0.834360000000     0.832330000000     0.486180000000     0.509525   
Cd7      Cd     0.183860000000     0.829790000000     0.467390000000     0.510501   
Cd8      Cd     0.182190000000     0.178800000000     0.453300000000     0.509588   
H1       H      0.215540000000     0.982920000000     0.538190000000     0.0561438  
H2       H      0.212940000000     0.928580000000     0.539190000000     0.0359827  
H3       H      0.169990000000     0.928950000000     0.384870000000     0.0352871  
H4       H      0.171430000000     0.983230000000     0.383130000000     0.0561122  
H5       H      0.204560000000     0.025340000000     0.375210000000     0.0562126  
H6       H      0.202310000000     0.079640000000     0.374490000000     0.0359772  
H7       H      0.182240000000     0.080380000000     0.543480000000     0.0350889  
H8       H      0.183460000000     0.026040000000     0.545430000000     0.0561166  
H9       H      0.987090000000     0.831230000000     0.391810000000     0.0561069  
H10      H      0.932670000000     0.832500000000     0.394560000000     0.0350959  
H11      H      0.933880000000     0.812290000000     0.563360000000     0.0360191  
H12      H      0.988250000000     0.809990000000     0.561840000000     0.0561772  
H13      H      0.030460000000     0.842980000000     0.553570000000     0.0561151  
H14      H      0.084810000000     0.844190000000     0.551140000000     0.0352782  
H15      H      0.084630000000     0.801420000000     0.396480000000     0.0359686  
H16      H      0.030200000000     0.799060000000     0.398160000000     0.0561273  
H17      H      0.839240000000     0.030660000000     0.571740000000     0.0559931  
H18      H      0.841160000000     0.084810000000     0.564470000000     0.0355572  
H19      H      0.808750000000     0.080010000000     0.402240000000     0.0357483  
H20      H      0.807230000000     0.025690000000     0.407590000000     0.0562313  
H21      H      0.782000000000     0.983680000000     0.449380000000     0.0561269  
H22      H      0.784440000000     0.929270000000     0.451200000000     0.0360295  
H23      H      0.866680000000     0.933230000000     0.539810000000     0.0352015  
H24      H      0.865350000000     0.987490000000     0.537710000000     0.0559668  
H25      H      0.026790000000     0.148100000000     0.402320000000     0.055956   
H26      H      0.081110000000     0.146640000000     0.400090000000     0.0351916  
H27      H      0.085200000000     0.228840000000     0.488860000000     0.0360085  
H28      H      0.030730000000     0.231420000000     0.490800000000     0.0561298  
H29      H      0.988550000000     0.206400000000     0.532600000000     0.0562339  
H30      H      0.934150000000     0.205050000000     0.538050000000     0.0357613  
H31      H      0.929420000000     0.172490000000     0.375780000000     0.0355562  
H32      H      0.983660000000     0.174240000000     0.368420000000     0.0559748  
H33      H      0.739570000000     0.792470000000     0.800580000000     0.0562919  
H34      H      0.716370000000     0.768630000000     0.878220000000     0.0353944  
H35      H      0.724980000000     0.682780000000     0.802560000000     0.0357096  
H36      H      0.747910000000     0.705940000000     0.723960000000     0.0563619  
H37      H      0.794910000000     0.731070000000     0.700150000000     0.0565397  
H38      H      0.819530000000     0.754590000000     0.623790000000     0.0363309  
H39      H      0.756450000000     0.826890000000     0.628650000000     0.0351022  
H40      H      0.730980000000     0.803730000000     0.704870000000     0.0561538  
H41      H      0.720460000000     0.782290000000     0.203230000000     0.0565041  
H42      H      0.696030000000     0.758910000000     0.126760000000     0.0361698  
H43      H      0.760890000000     0.688170000000     0.127540000000     0.0351077  
H44      H      0.786270000000     0.711280000000     0.203770000000     0.0561992  
H45      H      0.778740000000     0.721690000000     0.299820000000     0.056216   
H46      H      0.801980000000     0.745710000000     0.377170000000     0.0353468  
H47      H      0.789390000000     0.831800000000     0.304620000000     0.0358907  
H48      H      0.766520000000     0.808520000000     0.226300000000     0.0563346  
H49      H      0.791420000000     0.288210000000     0.772640000000     0.0561115  
H50      H      0.767380000000     0.311420000000     0.850270000000     0.0354613  
H51      H      0.683500000000     0.271630000000     0.806560000000     0.0357584  
H52      H      0.706490000000     0.248820000000     0.727980000000     0.0561549  
H53      H      0.740880000000     0.210100000000     0.703400000000     0.0561579  
H54      H      0.763760000000     0.186920000000     0.625060000000     0.035799   
H55      H      0.817000000000     0.265330000000     0.598050000000     0.0356024  
H56      H      0.793930000000     0.289620000000     0.675520000000     0.0561     
H57      H      0.724320000000     0.220550000000     0.265960000000     0.0560565  
H58      H      0.748600000000     0.197370000000     0.343100000000     0.0356066  
H59      H      0.827310000000     0.250240000000     0.315880000000     0.0357951  
H60      H      0.804140000000     0.273230000000     0.237850000000     0.056151   
H61      H      0.765480000000     0.307730000000     0.213700000000     0.0561229  
H62      H      0.742710000000     0.330760000000     0.135350000000     0.035777   
H63      H      0.702560000000     0.247130000000     0.091480000000     0.0354738  
H64      H      0.725710000000     0.223050000000     0.168850000000     0.0560849  
H65      H      0.669850000000     0.484830000000     0.065570000000     0.0560457  
H66      H      0.667980000000     0.430660000000     0.059610000000     0.0355508  
H67      H      0.711820000000     0.433440000000     0.905860000000     0.0355975  
H68      H      0.713470000000     0.487850000000     0.909880000000     0.056227   
H69      H      0.735620000000     0.530540000000     0.956180000000     0.0561551  
H70      H      0.733390000000     0.585030000000     0.957520000000     0.0358104  
H71      H      0.645120000000     0.581550000000     0.025610000000     0.0352551  
H72      H      0.646290000000     0.527340000000     0.023830000000     0.0559742  
H73      H      0.286150000000     0.789790000000     0.679490000000     0.0564457  
H74      H      0.263060000000     0.814050000000     0.602530000000     0.0359927  
H75      H      0.188220000000     0.754180000000     0.612340000000     0.0354364  
H76      H      0.210970000000     0.728930000000     0.688830000000     0.0561024  
H77      H      0.223370000000     0.736970000000     0.783200000000     0.0562589  
H78      H      0.247160000000     0.713420000000     0.860440000000     0.0352522  
H79      H      0.332860000000     0.720140000000     0.783060000000     0.0362149  
H80      H      0.309800000000     0.743120000000     0.704830000000     0.0562518  
H81      H      0.222700000000     0.727850000000     0.253510000000     0.0564575  
H82      H      0.198620000000     0.751000000000     0.330850000000     0.035999   
H83      H      0.259430000000     0.825080000000     0.321830000000     0.0354309  
H84      H      0.284500000000     0.802250000000     0.244970000000     0.0561385  
H85      H      0.276540000000     0.790090000000     0.150480000000     0.0562448  
H86      H      0.300090000000     0.766160000000     0.073110000000     0.0352481  
H87      H      0.292160000000     0.680560000000     0.149670000000     0.036227   
H88      H      0.269180000000     0.703750000000     0.228000000000     0.0562691  
H89      H      0.487810000000     0.661470000000     0.048560000000     0.0563528  
H90      H      0.433500000000     0.658430000000     0.045260000000     0.0352209  
H91      H      0.431430000000     0.725610000000     0.922090000000     0.0360722  
H92      H      0.485830000000     0.729470000000     0.924760000000     0.0562641  
H93      H      0.529190000000     0.698190000000     0.899540000000     0.0565182  
H94      H      0.583680000000     0.696440000000     0.899950000000     0.0351022  
H95      H      0.583620000000     0.692750000000     0.072570000000     0.0359568  
H96      H      0.529200000000     0.694830000000     0.073660000000     0.0562842  
H97      H      0.231310000000     0.291670000000     0.737860000000     0.0564854  
H98      H      0.254570000000     0.316290000000     0.814250000000     0.036164   
H99      H      0.326680000000     0.252930000000     0.811100000000     0.035133   
H100     H      0.303690000000     0.227360000000     0.734910000000     0.0561485  
H101     H      0.292720000000     0.235040000000     0.639170000000     0.0562441  
H102     H      0.268790000000     0.211830000000     0.561700000000     0.0353248  
H103     H      0.182660000000     0.222440000000     0.636070000000     0.0358922  
H104     H      0.205870000000     0.245260000000     0.714500000000     0.0563403  
H105     H      0.283470000000     0.219070000000     0.239350000000     0.0565642  
H106     H      0.260040000000     0.194240000000     0.315570000000     0.0363101  
H107     H      0.187340000000     0.256880000000     0.311740000000     0.0350966  
H108     H      0.210400000000     0.282550000000     0.235680000000     0.0562211  
H109     H      0.221660000000     0.274090000000     0.139810000000     0.056306   
H110     H      0.245380000000     0.297350000000     0.062100000000     0.0354421  
H111     H      0.331420000000     0.289180000000     0.137120000000     0.0356638  
H112     H      0.308390000000     0.266190000000     0.215780000000     0.05633    
H113     H      0.486810000000     0.368140000000     0.918570000000     0.0560099  
H114     H      0.432540000000     0.369100000000     0.916220000000     0.0352492  
H115     H      0.429090000000     0.280430000000     0.981670000000     0.0358212  
H116     H      0.483660000000     0.278440000000     0.983610000000     0.0561223  
H117     H      0.526130000000     0.300580000000     0.031070000000     0.0562706  
H118     H      0.580600000000     0.302370000000     0.035490000000     0.0355802  
H119     H      0.583800000000     0.346860000000     0.882630000000     0.0355725  
H120     H      0.529590000000     0.344890000000     0.876320000000     0.0560809  
H121     H      0.314380000000     0.484820000000     0.036380000000     0.0565648  
H122     H      0.316300000000     0.430410000000     0.037190000000     0.0351241  
H123     H      0.321580000000     0.429070000000     0.864690000000     0.0359265  
H124     H      0.319340000000     0.483400000000     0.862380000000     0.0562964  
H125     H      0.352410000000     0.525020000000     0.887390000000     0.0563155  
H126     H      0.355340000000     0.579290000000     0.889720000000     0.0352298  
H127     H      0.286950000000     0.582180000000     0.011180000000     0.0360937  
H128     H      0.283190000000     0.527840000000     0.009460000000     0.056308   
N1       N      0.191190000000     0.924870000000     0.462240000000    -0.178757   
N2       N      0.191880000000     0.083900000000     0.458790000000    -0.178952   
N3       N      0.929380000000     0.822790000000     0.479210000000    -0.178887   
N4       N      0.088620000000     0.823050000000     0.473550000000    -0.178779   
N5       N      0.825300000000     0.086310000000     0.482740000000    -0.178567   
N6       N      0.825810000000     0.927330000000     0.495270000000    -0.178368   
N7       N      0.087080000000     0.187480000000     0.444700000000    -0.178348   
N8       N      0.927880000000     0.188440000000     0.457530000000    -0.178563   
N9       N      0.719180000000     0.723990000000     0.846140000000    -0.178841   
N10      N      0.789790000000     0.792430000000     0.620740000000    -0.178726   
N11      N      0.726700000000     0.721870000000     0.121630000000    -0.178911   
N12      N      0.797170000000     0.790470000000     0.346630000000    -0.178845   
N13      N      0.723770000000     0.293120000000     0.834140000000    -0.178662   
N14      N      0.792010000000     0.224440000000     0.605880000000    -0.178529   
N15      N      0.789650000000     0.222170000000     0.335140000000    -0.178597   
N16      N      0.721040000000     0.290620000000     0.107700000000    -0.178672   
N17      N      0.689510000000     0.428150000000     0.982120000000    -0.178636   
N18      N      0.689110000000     0.587210000000     0.991500000000    -0.178442   
N19      N      0.224000000000     0.785880000000     0.601910000000    -0.178845   
N20      N      0.291710000000     0.715290000000     0.827480000000    -0.178716   
N21      N      0.227290000000     0.789670000000     0.331910000000    -0.178842   
N22      N      0.297630000000     0.721660000000     0.105660000000    -0.178706   
N23      N      0.428590000000     0.691560000000     0.983080000000    -0.178818   
N24      N      0.587550000000     0.694110000000     0.986190000000    -0.178868   
N25      N      0.292280000000     0.286390000000     0.818180000000    -0.17889    
N26      N      0.224010000000     0.215660000000     0.593130000000    -0.178898   
N27      N      0.222000000000     0.223740000000     0.319110000000    -0.17873    
N28      N      0.290110000000     0.294750000000     0.093850000000    -0.178824   
N29      N      0.426880000000     0.324900000000     0.948960000000    -0.178427   
N30      N      0.586110000000     0.325000000000     0.959700000000    -0.178652   
N31      N      0.319440000000     0.425860000000     0.951100000000    -0.178832   
N32      N      0.321600000000     0.584610000000     0.950990000000    -0.178799   
O1       O      0.331490000000     0.310950000000     0.045780000000    -0.246961   
O2       O      0.329590000000     0.291840000000     0.882140000000    -0.250796   
O3       O      0.379940000000     0.304900000000     0.966180000000    -0.242928   
O4       O      0.323100000000     0.380580000000     0.995790000000    -0.250151   
O5       O      0.325340000000     0.380130000000     0.909040000000    -0.244662   
O6       O      0.382210000000     0.349400000000     0.933300000000    -0.250621   
O7       O      0.288350000000     0.314470000000     0.007870000000    -0.250576   
O8       O      0.293290000000     0.323470000000     0.882910000000    -0.246746   
O9       O      0.313380000000     0.680010000000     0.058350000000    -0.245012   
O10      O      0.333290000000     0.699290000000     0.874560000000    -0.245148   
O11      O      0.309300000000     0.630780000000     0.986700000000    -0.244805   
O12      O      0.383830000000     0.669200000000     0.007040000000    -0.251267   
O13      O      0.382580000000     0.703540000000     0.946380000000    -0.244817   
O14      O      0.344230000000     0.629160000000     0.926900000000    -0.251222   
O15      O      0.318150000000     0.722930000000     0.019980000000    -0.250405   
O16      O      0.290310000000     0.695180000000     0.913340000000    -0.250525   
O17      O      0.682950000000     0.301680000000     0.889420000000    -0.249046   
O18      O      0.712650000000     0.331390000000     0.052600000000    -0.249063   
O19      O      0.632300000000     0.339920000000     0.927320000000    -0.2488     
O20      O      0.697570000000     0.383050000000     0.938460000000    -0.246651   
O21      O      0.674670000000     0.382090000000     0.014870000000    -0.248821   
O22      O      0.631160000000     0.316830000000     0.003400000000    -0.246565   
O23      O      0.724580000000     0.322880000000     0.910550000000    -0.247793   
O24      O      0.691290000000     0.289890000000     0.031400000000    -0.247969   
O25      O      0.703020000000     0.682570000000     0.893870000000    -0.246819   
O26      O      0.689440000000     0.720430000000     0.057320000000    -0.246621   
O27      O      0.708760000000     0.634080000000     0.972980000000    -0.243059   
O28      O      0.633250000000     0.690220000000     0.942560000000    -0.250312   
O29      O      0.633020000000     0.688790000000     0.029340000000    -0.244483   
O30      O      0.664530000000     0.631810000000     0.007450000000    -0.250694   
O31      O      0.699240000000     0.725620000000     0.932100000000    -0.250607   
O32      O      0.721840000000     0.684830000000     0.056980000000    -0.250992   
O33      O      0.837010000000     0.132930000000     0.517060000000    -0.249026   
O34      O      0.881200000000     0.176830000000     0.423300000000    -0.249014   
O35      O      0.797530000000     0.184810000000     0.546840000000    -0.248924   
O36      O      0.790460000000     0.188910000000     0.406600000000    -0.247256   
O37      O      0.829340000000     0.216470000000     0.393850000000    -0.248932   
O38      O      0.825290000000     0.223530000000     0.534210000000    -0.24721    
O39      O      0.819790000000     0.130820000000     0.436190000000    -0.246234   
O40      O      0.883280000000     0.194140000000     0.504180000000    -0.246187   
O41      O      0.826940000000     0.793830000000     0.555900000000    -0.245211   
O42      O      0.812150000000     0.832080000000     0.394950000000    -0.245645   
O43      O      0.884170000000     0.822220000000     0.524690000000    -0.245065   
O44      O      0.849570000000     0.882780000000     0.515340000000    -0.250728   
O45      O      0.808510000000     0.880560000000     0.470070000000    -0.242652   
O46      O      0.883300000000     0.830930000000     0.439370000000    -0.25127    
O47      O      0.795090000000     0.829940000000     0.557160000000    -0.251295   
O48      O      0.818470000000     0.788910000000     0.431380000000    -0.250965   
O49      O      0.134300000000     0.815640000000     0.431510000000    -0.245283   
O50      O      0.198370000000     0.879130000000     0.503710000000    -0.245338   
O51      O      0.191480000000     0.790210000000     0.399290000000    -0.247169   
O52      O      0.185840000000     0.791970000000     0.540050000000    -0.24988    
O53      O      0.223640000000     0.821690000000     0.534790000000    -0.247176   
O54      O      0.221630000000     0.827660000000     0.394390000000    -0.249881   
O55      O      0.134380000000     0.836000000000     0.510220000000    -0.24991    
O56      O      0.177930000000     0.879320000000     0.425150000000    -0.249924   
O57      O      0.192370000000     0.129180000000     0.413960000000    -0.245119   
O58      O      0.133940000000     0.204690000000     0.469770000000    -0.242715   
O59      O      0.220740000000     0.186490000000     0.383520000000    -0.245118   
O60      O      0.225610000000     0.194980000000     0.507800000000    -0.250952   
O61      O      0.182420000000     0.200340000000     0.545120000000    -0.24576    
O62      O      0.184450000000     0.218150000000     0.382790000000    -0.251181   
O63      O      0.183730000000     0.129800000000     0.499350000000    -0.251287   
O64      O      0.131650000000     0.163660000000     0.424370000000    -0.250786   


