data_structure

_audit_creation_method RASPA-1.0
_audit_creation_date 2023-6-5
_audit_author_name 'Poobodin Mano'

_cell_length_a    43.551
_cell_length_b    44.3468
_cell_length_c    25.2457
_cell_angle_alpha 90.0427
_cell_angle_beta  89.8771
_cell_angle_gamma 90
_cell_volume      48758.1

_symmetry_cell_setting          triclinic
_symmetry_space_group_name_Hall 'P 1'
_symmetry_space_group_name_H-M  'P 1'
_symmetry_Int_Tables_number     1

_symmetry_equiv_pos_as_xyz 'x,y,z'

loop_
_atom_site_label
_atom_site_type_symbol
_atom_site_fract_x
_atom_site_fract_y
_atom_site_fract_z
_atom_site_charge
C1       C      0.409890000000     0.329160000000     0.969550000000     0.344972   
C2       C      0.314550000000     0.300030000000     0.061480000000     0.350343   
C3       C      0.332030000000     0.394090000000     0.967090000000     0.34525    
C4       C      0.315870000000     0.294820000000     0.888530000000     0.34887    
C5       C      0.318230000000     0.614230000000     0.949920000000     0.350698   
C6       C      0.314270000000     0.707340000000     0.059740000000     0.350646   
C7       C      0.399570000000     0.683440000000     0.967900000000     0.345151   
C8       C      0.303160000000     0.702830000000     0.872180000000     0.344649   
C9       C      0.635910000000     0.330020000000     0.961580000000     0.351202   
C10      C      0.731040000000     0.312320000000     0.872130000000     0.346522   
C11      C      0.711360000000     0.403970000000     0.967900000000     0.351867   
C12      C      0.731540000000     0.309380000000     0.051510000000     0.35303    
C13      C      0.702740000000     0.624830000000     0.945000000000     0.344393   
C14      C      0.712040000000     0.716070000000     0.841640000000     0.350732   
C15      C      0.625260000000     0.687690000000     0.952650000000     0.352761   
C16      C      0.722580000000     0.723800000000     0.020980000000     0.349278   
C17      C      0.828370000000     0.221450000000     0.558290000000     0.351909   
C18      C      0.840390000000     0.127610000000     0.469050000000     0.351516   
C19      C      0.823000000000     0.218280000000     0.369930000000     0.347739   
C20      C      0.916320000000     0.202380000000     0.455040000000     0.352253   
C21      C      0.899150000000     0.841390000000     0.444260000000     0.35113    
C22      C      0.804070000000     0.811110000000     0.526340000000     0.346776   
C23      C      0.824330000000     0.907310000000     0.440060000000     0.346342   
C24      C      0.807760000000     0.815480000000     0.344060000000     0.345604   
C25      C      0.219400000000     0.800380000000     0.373440000000     0.346209   
C26      C      0.124650000000     0.829170000000     0.462300000000     0.346813   
C27      C      0.206830000000     0.794830000000     0.560030000000     0.350947   
C28      C      0.215280000000     0.888770000000     0.460730000000     0.351132   
C29      C      0.218120000000     0.108690000000     0.475180000000     0.348936   
C30      C      0.230540000000     0.202370000000     0.380120000000     0.348185   
C31      C      0.140600000000     0.182310000000     0.468090000000     0.346703   
C32      C      0.230650000000     0.198700000000     0.569630000000     0.345849   
C33      C      0.224580000000     0.935690000000     0.414270000000     0.186048   
C34      C      0.229890000000     0.932400000000     0.507870000000     0.0761864  
C35      C      0.225640000000     0.967310000000     0.417690000000    -0.131041   
C36      C      0.241710000000     0.033330000000     0.431990000000    -0.077485   
C37      C      0.232210000000     0.963680000000     0.511870000000    -0.0945244  
C38      C      0.228130000000     0.015120000000     0.470900000000     0.0273491  
C39      C      0.228910000000     0.981630000000     0.466770000000     0.0572234  
C40      C      0.238640000000     0.064650000000     0.434550000000     0.068821   
C41      C      0.210030000000     0.060580000000     0.514220000000     0.0692301  
C42      C      0.212510000000     0.029200000000     0.512750000000    -0.0774837  
C43      C      0.947110000000     0.859800000000     0.481150000000     0.185363   
C44      C      0.946450000000     0.821740000000     0.414500000000     0.0761182  
C45      C      0.978950000000     0.855800000000     0.486660000000    -0.131405   
C46      C      0.046680000000     0.859680000000     0.462320000000    -0.0777307  
C47      C      0.978260000000     0.818500000000     0.417770000000    -0.0944287  
C48      C      0.028960000000     0.833500000000     0.456790000000     0.0266159  
C49      C      0.994900000000     0.835490000000     0.454350000000     0.0574143  
C50      C      0.078600000000     0.857720000000     0.464280000000     0.068258   
C51      C      0.076200000000     0.804560000000     0.455060000000     0.0679932  
C52      C      0.044120000000     0.805700000000     0.453010000000    -0.0773558  
C53      C      0.809310000000     0.083110000000     0.487840000000     0.184803   
C54      C      0.858930000000     0.079150000000     0.448620000000     0.0757449  
C55      C      0.804790000000     0.052000000000     0.479500000000    -0.130808   
C56      C      0.811260000000     0.983630000000     0.490710000000    -0.0775838  
C57      C      0.855270000000     0.048230000000     0.441820000000    -0.0951397  
C58      C      0.824180000000     0.001160000000     0.450230000000     0.0265255  
C59      C      0.827830000000     0.034310000000     0.456510000000     0.0568907  
C60      C      0.810610000000     0.952230000000     0.485980000000     0.0676025  
C61      C      0.834090000000     0.955160000000     0.401310000000     0.0676808  
C62      C      0.835100000000     0.986550000000     0.404720000000    -0.0780253  
C63      C      0.964620000000     0.222230000000     0.488030000000     0.184293   
C64      C      0.963110000000     0.187810000000     0.415670000000     0.0760967  
C65      C      0.996700000000     0.218700000000     0.490770000000    -0.130283   
C66      C      0.065570000000     0.219660000000     0.467810000000    -0.0778569  
C67      C      0.994940000000     0.184780000000     0.416700000000    -0.0942774  
C68      C      0.045830000000     0.195260000000     0.458710000000     0.0273006  
C69      C      0.012060000000     0.199610000000     0.455450000000     0.0561795  
C70      C      0.097250000000     0.214950000000     0.470810000000     0.0687683  
C71      C      0.090360000000     0.162550000000     0.456380000000     0.069041   
C72      C      0.058620000000     0.166460000000     0.452970000000    -0.0778407  
C73      C      0.709410000000     0.754870000000     0.773550000000     0.184754   
C74      C      0.746080000000     0.715130000000     0.768940000000     0.0750895  
C75      C      0.723860000000     0.769010000000     0.730270000000    -0.130861   
C76      C      0.745490000000     0.784650000000     0.619590000000    -0.0772435  
C77      C      0.759690000000     0.728060000000     0.724400000000    -0.094506   
C78      C      0.763420000000     0.769780000000     0.657560000000     0.0270933  
C79      C      0.748990000000     0.755580000000     0.704950000000     0.0568526  
C80      C      0.759450000000     0.798210000000     0.575800000000     0.0686317  
C81      C      0.808440000000     0.782190000000     0.605250000000     0.0687821  
C82      C      0.795280000000     0.768600000000     0.649740000000    -0.0773327  
C83      C      0.767820000000     0.738360000000     0.071350000000     0.185122   
C84      C      0.717830000000     0.754980000000     0.096140000000     0.0759022  
C85      C      0.779540000000     0.750040000000     0.119110000000    -0.130852   
C86      C      0.794650000000     0.762510000000     0.234940000000    -0.0774306  
C87      C      0.729230000000     0.767700000000     0.142580000000    -0.0944749  
C88      C      0.772720000000     0.778030000000     0.204890000000     0.0271489  
C89      C      0.760290000000     0.764830000000     0.155140000000     0.0570195  
C90      C      0.806040000000     0.775290000000     0.281580000000     0.0686282  
C91      C      0.774680000000     0.818430000000     0.269490000000     0.0688367  
C92      C      0.762770000000     0.806310000000     0.222790000000    -0.0776151  
C93      C      0.829890000000     0.230730000000     0.653170000000     0.184187   
C94      C      0.792200000000     0.253780000000     0.598200000000     0.0753646  
C95      C      0.814780000000     0.242200000000     0.698190000000    -0.131655   
C96      C      0.790940000000     0.286310000000     0.781030000000    -0.0780432  
C97      C      0.777560000000     0.266150000000     0.642270000000    -0.0950862  
C98      C      0.773440000000     0.273520000000     0.740300000000     0.0266172  
C99      C      0.788570000000     0.260140000000     0.693020000000     0.0567486  
C100     C      0.776370000000     0.299210000000     0.824840000000     0.0677196  
C101     C      0.727560000000     0.286920000000     0.789360000000     0.0679578  
C102     C      0.741390000000     0.273960000000     0.744850000000    -0.0778904  
C103     C      0.751300000000     0.264710000000     0.095940000000     0.184367   
C104     C      0.754010000000     0.313300000000     0.135940000000     0.0760434  
C105     C      0.762260000000     0.251760000000     0.143180000000    -0.131107   
C106     C      0.772530000000     0.229140000000     0.255620000000    -0.0776505  
C107     C      0.766000000000     0.300970000000     0.182200000000    -0.0952841  
C108     C      0.783560000000     0.256430000000     0.235120000000     0.0269318  
C109     C      0.770000000000     0.269860000000     0.186520000000     0.0569701  
C110     C      0.785940000000     0.216690000000     0.300860000000     0.0683989  
C111     C      0.820870000000     0.257580000000     0.306160000000     0.0690316  
C112     C      0.808030000000     0.270640000000     0.261070000000    -0.077973   
C113     C      0.709770000000     0.452180000000     0.013640000000     0.185511   
C114     C      0.722650000000     0.448920000000     0.922110000000     0.0760685  
C115     C      0.708170000000     0.483770000000     0.009260000000    -0.131179   
C116     C      0.723410000000     0.550330000000     0.996250000000    -0.0776777  
C117     C      0.722270000000     0.480230000000     0.917510000000    -0.0947683  
C118     C      0.712360000000     0.531410000000     0.956080000000     0.0267474  
C119     C      0.714260000000     0.498050000000     0.961000000000     0.0569888  
C120     C      0.720450000000     0.581590000000     0.991560000000     0.0674373  
C121     C      0.696340000000     0.575950000000     0.908020000000     0.0679666  
C122     C      0.698950000000     0.544640000000     0.911390000000    -0.0776215  
C123     C      0.205260000000     0.786460000000     0.655150000000     0.185452   
C124     C      0.238570000000     0.758120000000     0.599130000000     0.076284   
C125     C      0.219900000000     0.774130000000     0.699830000000    -0.131026   
C126     C      0.242360000000     0.730270000000     0.784600000000    -0.0777706  
C127     C      0.252700000000     0.745030000000     0.642870000000    -0.0949923  
C128     C      0.259380000000     0.740220000000     0.740850000000     0.0268732  
C129     C      0.243900000000     0.753440000000     0.693930000000     0.0572226  
C130     C      0.257370000000     0.717710000000     0.828160000000     0.067965   
C131     C      0.305670000000     0.724830000000     0.786440000000     0.0681514  
C132     C      0.291390000000     0.737320000000     0.742120000000    -0.0776731  
C133     C      0.312880000000     0.712330000000     0.155550000000     0.18532    
C134     C      0.283440000000     0.744560000000     0.099810000000     0.0764057  
C135     C      0.297990000000     0.724560000000     0.200160000000    -0.131288   
C136     C      0.278440000000     0.769090000000     0.285910000000    -0.0781561  
C137     C      0.269100000000     0.757500000000     0.143660000000    -0.0950537  
C138     C      0.261060000000     0.760970000000     0.241550000000     0.0268995  
C139     C      0.275990000000     0.747260000000     0.194470000000     0.0573186  
C140     C      0.264110000000     0.782330000000     0.329640000000     0.0681599  
C141     C      0.215740000000     0.779360000000     0.286980000000     0.068431   
C142     C      0.229370000000     0.766310000000     0.242370000000    -0.0777621  
C143     C      0.579120000000     0.673980000000     0.001740000000     0.184789   
C144     C      0.576350000000     0.698720000000     0.918140000000     0.0760062  
C145     C      0.547050000000     0.676530000000     0.006860000000    -0.131154   
C146     C      0.479970000000     0.662880000000     0.988190000000    -0.0778638  
C147     C      0.544440000000     0.700150000000     0.921530000000    -0.094953   
C148     C      0.495260000000     0.688390000000     0.968810000000     0.0268177  
C149     C      0.529380000000     0.689030000000     0.966250000000     0.0570663  
C150     C      0.447980000000     0.661840000000     0.988210000000     0.0679926  
C151     C      0.445590000000     0.710810000000     0.950800000000     0.0679389  
C152     C      0.477650000000     0.712620000000     0.950240000000    -0.0774927  
C153     C      0.312020000000     0.249970000000     0.833380000000     0.184622   
C154     C      0.280160000000     0.292810000000     0.818760000000     0.0755106  
C155     C      0.300890000000     0.236970000000     0.786290000000    -0.130953   
C156     C      0.285240000000     0.221880000000     0.671980000000    -0.0774377  
C157     C      0.268100000000     0.279790000000     0.773110000000    -0.0947332  
C158     C      0.266100000000     0.237610000000     0.707110000000     0.0270925  
C159     C      0.278730000000     0.251770000000     0.755850000000     0.0569951  
C160     C      0.272980000000     0.208870000000     0.626260000000     0.0687076  
C161     C      0.223280000000     0.226500000000     0.649150000000     0.0686778  
C162     C      0.234760000000     0.239720000000     0.695230000000    -0.0776663  
C163     C      0.270190000000     0.289390000000     0.117060000000     0.18485    
C164     C      0.319060000000     0.267430000000     0.134610000000     0.0757384  
C165     C      0.258900000000     0.277110000000     0.164620000000    -0.131296   
C166     C      0.236340000000     0.230760000000     0.244430000000    -0.0779499  
C167     C      0.307940000000     0.254280000000     0.180950000000    -0.0949302  
C168     C      0.265200000000     0.244680000000     0.245100000000     0.0271392  
C169     C      0.277640000000     0.259250000000     0.196680000000     0.0572176  
C170     C      0.225140000000     0.216680000000     0.289960000000     0.068916   
C171     C      0.270190000000     0.230020000000     0.337090000000     0.0689595  
C172     C      0.282200000000     0.244160000000     0.292130000000    -0.0776591  
C173     C      0.588770000000     0.306830000000     0.993800000000     0.185101   
C174     C      0.588010000000     0.344620000000     0.926860000000     0.0761251  
C175     C      0.556510000000     0.308120000000     0.996740000000    -0.13113    
C176     C      0.489940000000     0.326830000000     0.013550000000    -0.0774341  
C177     C      0.556040000000     0.345300000000     0.927770000000    -0.0947961  
C178     C      0.505730000000     0.327880000000     0.965170000000     0.0268582  
C179     C      0.539870000000     0.327320000000     0.963560000000     0.0571851  
C180     C      0.457860000000     0.327320000000     0.014300000000     0.0684532  
C181     C      0.456560000000     0.329750000000     0.920510000000     0.0684996  
C182     C      0.488600000000     0.329350000000     0.918310000000    -0.0775761  
C183     C      0.322220000000     0.566930000000     0.902320000000     0.185998   
C184     C      0.302120000000     0.568850000000     0.989970000000     0.0761833  
C185     C      0.324230000000     0.535370000000     0.905920000000    -0.131204   
C186     C      0.312460000000     0.468190000000     0.913070000000    -0.0774514  
C187     C      0.302790000000     0.537470000000     0.993540000000    -0.0945168  
C188     C      0.318030000000     0.487040000000     0.956600000000     0.0270619  
C189     C      0.314920000000     0.520360000000     0.951980000000     0.0573027  
C190     C      0.317060000000     0.437140000000     0.917420000000     0.068497   
C191     C      0.331740000000     0.442620000000     0.007280000000     0.0687513  
C192     C      0.327540000000     0.473800000000     0.004240000000    -0.0770712  
Cd1      Cd     0.343520000000     0.329960000000     0.972540000000     0.507936   
Cd2      Cd     0.333510000000     0.677310000000     0.963220000000     0.508425   
Cd3      Cd     0.701800000000     0.339320000000     0.963580000000     0.5075     
Cd4      Cd     0.691390000000     0.689020000000     0.940100000000     0.507376   
Cd5      Cd     0.850830000000     0.192150000000     0.463130000000     0.50732    
Cd6      Cd     0.832790000000     0.842630000000     0.438860000000     0.508658   
Cd7      Cd     0.191110000000     0.827940000000     0.464880000000     0.508399   
Cd8      Cd     0.206080000000     0.172850000000     0.473380000000     0.509147   
H1       H      0.249100000000     0.077900000000     0.403270000000     0.0345895  
H2       H      0.230960000000     0.919660000000     0.544480000000     0.0338744  
H3       H      0.201380000000     0.016080000000     0.543430000000     0.0543549  
H4       H      0.235820000000     0.973740000000     0.550460000000     0.0582701  
H5       H      0.254540000000     0.023500000000     0.399490000000     0.0529003  
H6       H      0.224060000000     0.980610000000     0.381800000000     0.0676184  
H7       H      0.197270000000     0.070520000000     0.546770000000     0.0350924  
H8       H      0.230610000000     0.900170000000     0.358920000000     0.116027   
H9       H      0.225550000000     0.936270000000     0.331080000000     0.0953812  
H10      H      0.091370000000     0.878580000000     0.468440000000     0.0348406  
H11      H      0.934570000000     0.807440000000     0.386310000000     0.0337855  
H12      H      0.031300000000     0.784890000000     0.449080000000     0.0539265  
H13      H      0.989740000000     0.802900000000     0.391280000000     0.058748   
H14      H      0.036020000000     0.881720000000     0.464320000000     0.0530162  
H15      H      0.991470000000     0.869620000000     0.514720000000     0.0671416  
H16      H      0.087120000000     0.782650000000     0.452160000000     0.0345331  
H17      H      0.912650000000     0.892500000000     0.497770000000     0.117147   
H18      H      0.946890000000     0.896610000000     0.533580000000     0.0946724  
H19      H      0.801150000000     0.939400000000     0.518720000000     0.0344718  
H20      H      0.880450000000     0.088750000000     0.435010000000     0.0331798  
H21      H      0.844750000000     0.999280000000     0.372080000000     0.0539074  
H22      H      0.874070000000     0.035290000000     0.425220000000     0.057908   
H23      H      0.802730000000     0.993950000000     0.526740000000     0.0529079  
H24      H      0.783630000000     0.041460000000     0.492570000000     0.0670586  
H25      H      0.843320000000     0.944730000000     0.365830000000     0.0344655  
H26      H      0.791610000000     0.119130000000     0.534410000000     0.118112   
H27      H      0.767820000000     0.087270000000     0.529730000000     0.0949745  
H28      H      0.111770000000     0.234420000000     0.477670000000     0.0348653  
H29      H      0.950890000000     0.174740000000     0.386120000000     0.0336715  
H30      H      0.044170000000     0.146910000000     0.446560000000     0.0542582  
H31      H      0.006030000000     0.170470000000     0.387590000000     0.0581303  
H32      H      0.056670000000     0.242350000000     0.471900000000     0.0530696  
H33      H      0.009650000000     0.231240000000     0.520060000000     0.0666668  
H34      H      0.099290000000     0.139860000000     0.451870000000     0.0351133  
H35      H      0.929330000000     0.252230000000     0.512400000000     0.115245   
H36      H      0.964610000000     0.256500000000     0.545510000000     0.0938015  
H37      H      0.744750000000     0.809580000000     0.547520000000     0.0348628  
H38      H      0.756030000000     0.694240000000     0.783190000000     0.0331956  
H39      H      0.810120000000     0.757680000000     0.678240000000     0.053747   
H40      H      0.778580000000     0.716400000000     0.705380000000     0.0581369  
H41      H      0.720730000000     0.785610000000     0.623220000000     0.0530054  
H42      H      0.714710000000     0.790080000000     0.715370000000     0.0670875  
H43      H      0.833190000000     0.780940000000     0.600940000000     0.0353782  
H44      H      0.666500000000     0.754910000000     0.813970000000     0.119847   
H45      H      0.673680000000     0.786690000000     0.774480000000     0.094946   
H46      H      0.822930000000     0.762550000000     0.303750000000     0.0351637  
H47      H      0.693300000000     0.756880000000     0.089610000000     0.0343056  
H48      H      0.746180000000     0.819290000000     0.200480000000     0.0540185  
H49      H      0.713470000000     0.778980000000     0.169280000000     0.0585769  
H50      H      0.802730000000     0.740450000000     0.222890000000     0.0543348  
H51      H      0.804000000000     0.749000000000     0.126740000000     0.067572   
H52      H      0.766450000000     0.840440000000     0.281760000000     0.0354611  
H53      H      0.811840000000     0.727530000000     0.043070000000     0.0954862  
H54      H      0.782910000000     0.724940000000     0.994800000000     0.116936   
H55      H      0.790730000000     0.309010000000     0.855370000000     0.0338408  
H56      H      0.782140000000     0.258510000000     0.559820000000     0.03265    
H57      H      0.727040000000     0.264070000000     0.714450000000     0.0538296  
H58      H      0.757690000000     0.280470000000     0.636460000000     0.058571   
H59      H      0.815770000000     0.286830000000     0.778750000000     0.052846   
H60      H      0.824130000000     0.237880000000     0.737230000000     0.0665684  
H61      H      0.702690000000     0.286750000000     0.791470000000     0.0346251  
H62      H      0.866360000000     0.213800000000     0.698590000000     0.0942585  
H63      H      0.873460000000     0.213460000000     0.630050000000     0.119069   
H64      H      0.776730000000     0.195560000000     0.315520000000     0.0348475  
H65      H      0.750520000000     0.337520000000     0.135550000000     0.0314043  
H66      H      0.817620000000     0.291520000000     0.246180000000     0.0536341  
H67      H      0.771530000000     0.315840000000     0.214880000000     0.0579089  
H68      H      0.753460000000     0.217540000000     0.237150000000     0.0536992  
H69      H      0.766590000000     0.227700000000     0.144810000000     0.0669654  
H70      H      0.839860000000     0.269260000000     0.324850000000     0.0344564  
H71      H      0.752770000000     0.223200000000     0.055900000000     0.0940989  
H72      H      0.747120000000     0.254280000000     0.014000000000     0.116688   
H73      H      0.729090000000     0.595440000000     0.023650000000     0.0345906  
H74      H      0.727860000000     0.436190000000     0.886500000000     0.033409   
H75      H      0.689850000000     0.530880000000     0.879610000000     0.0541641  
H76      H      0.727950000000     0.490390000000     0.879720000000     0.0585807  
H77      H      0.734410000000     0.541090000000     0.031090000000     0.0529687  
H78      H      0.702730000000     0.497180000000     0.043960000000     0.06703    
H79      H      0.685450000000     0.585240000000     0.873060000000     0.0351261  
H80      H      0.703570000000     0.453560000000     0.096130000000     0.0950686  
H81      H      0.714760000000     0.418010000000     0.071920000000     0.119243   
H82      H      0.243370000000     0.710160000000     0.861170000000     0.0344478  
H83      H      0.247120000000     0.751530000000     0.560420000000     0.0336943  
H84      H      0.305410000000     0.745010000000     0.709300000000     0.0544718  
H85      H      0.270660000000     0.728490000000     0.636590000000     0.0583835  
H86      H      0.217530000000     0.731780000000     0.784940000000     0.0531431  
H87      H      0.212070000000     0.780250000000     0.739190000000     0.0675773  
H88      H      0.330500000000     0.723110000000     0.785950000000     0.0351794  
H89      H      0.171990000000     0.808300000000     0.701690000000     0.095122   
H90      H      0.163870000000     0.808510000000     0.633450000000     0.116503   
H91      H      0.278410000000     0.788430000000     0.363090000000     0.0341877  
H92      H      0.276540000000     0.752760000000     0.061150000000     0.0334477  
H93      H      0.215110000000     0.760130000000     0.208960000000     0.0546005  
H94      H      0.252650000000     0.775510000000     0.137680000000     0.0585487  
H95      H      0.303060000000     0.765680000000     0.286580000000     0.0532248  
H96      H      0.304260000000     0.716900000000     0.239460000000     0.0676684  
H97      H      0.191130000000     0.783030000000     0.286200000000     0.0350128  
H98      H      0.342890000000     0.686720000000     0.202490000000     0.0950996  
H99      H      0.353120000000     0.687790000000     0.135100000000     0.116818   
H100     H      0.437120000000     0.641510000000     0.003040000000     0.0345888  
H101     H      0.586820000000     0.708260000000     0.882900000000     0.0318222  
H102     H      0.488530000000     0.732890000000     0.935390000000     0.0537019  
H103     H      0.531650000000     0.709520000000     0.888690000000     0.0583204  
H104     H      0.492590000000     0.643390000000     0.002080000000     0.0531269  
H105     H      0.535780000000     0.667350000000     0.041610000000     0.0667924  
H106     H      0.432740000000     0.729920000000     0.935820000000     0.0349409  
H107     H      0.616070000000     0.648200000000     0.033230000000     0.117573   
H108     H      0.582450000000     0.648410000000     0.071490000000     0.0944884  
H109     H      0.288570000000     0.197030000000     0.599960000000     0.0353131  
H110     H      0.271820000000     0.315100000000     0.829120000000     0.0336242  
H111     H      0.219010000000     0.251230000000     0.721660000000     0.0533585  
H112     H      0.251050000000     0.292140000000     0.750710000000     0.0582912  
H113     H      0.309660000000     0.219960000000     0.679280000000     0.054311   
H114     H      0.308290000000     0.214510000000     0.775080000000     0.0672363  
H115     H      0.198900000000     0.228650000000     0.641460000000     0.0349843  
H116     H      0.336900000000     0.211010000000     0.853050000000     0.0952879  
H117     H      0.334330000000     0.237390000000     0.904840000000     0.117241   
H118     H      0.202760000000     0.206040000000     0.287700000000     0.0345641  
H119     H      0.343010000000     0.263430000000     0.124980000000     0.0332883  
H120     H      0.304510000000     0.254860000000     0.294370000000     0.0547019  
H121     H      0.323050000000     0.240100000000     0.204150000000     0.0587183  
H122     H      0.222650000000     0.230270000000     0.208670000000     0.0532961  
H123     H      0.235080000000     0.280650000000     0.175580000000     0.0675073  
H124     H      0.283990000000     0.230160000000     0.372790000000     0.0353417  
H125     H      0.226660000000     0.305510000000     0.095370000000     0.095093   
H126     H      0.253880000000     0.307040000000     0.044020000000     0.11745    
H127     H      0.446520000000     0.326580000000     0.052560000000     0.0351876  
H128     H      0.599330000000     0.359940000000     0.899600000000     0.0335504  
H129     H      0.499830000000     0.329760000000     0.880000000000     0.0539665  
H130     H      0.544110000000     0.360550000000     0.901370000000     0.0585259  
H131     H      0.502260000000     0.326010000000     0.050740000000     0.0541842  
H132     H      0.544320000000     0.292830000000     0.022890000000     0.0674223  
H133     H      0.444170000000     0.330800000000     0.883340000000     0.0353673  
H134     H      0.625680000000     0.277630000000     0.013800000000     0.119052   
H135     H      0.590800000000     0.270200000000     0.046370000000     0.0953138  
H136     H      0.312690000000     0.423410000000     0.882680000000     0.0350284  
H137     H      0.293930000000     0.581090000000     0.024420000000     0.0342125  
H138     H      0.332460000000     0.487480000000     0.038750000000     0.0544336  
H139     H      0.294360000000     0.526750000000     0.029260000000     0.0586292  
H140     H      0.304520000000     0.477300000000     0.875750000000     0.0528942  
H141     H      0.332810000000     0.522610000000     0.872390000000     0.0675512  
H142     H      0.339450000000     0.433320000000     0.044670000000     0.0353683  
H143     H      0.321090000000     0.601980000000     0.845220000000     0.115876   
H144     H      0.334470000000     0.566900000000     0.821780000000     0.095294   
N1       N      0.224090000000     0.918550000000     0.460180000000    -0.198323   
N2       N      0.222490000000     0.078100000000     0.474890000000    -0.178641   
N3       N      0.225900000000     0.922930000000     0.365200000000    -0.217796   
N4       N      0.930700000000     0.841470000000     0.446680000000    -0.197884   
N5       N      0.093250000000     0.830400000000     0.460640000000    -0.178804   
N6       N      0.934110000000     0.883630000000     0.506970000000    -0.218054   
N7       N      0.835970000000     0.096860000000     0.469570000000    -0.197926   
N8       N      0.822600000000     0.938120000000     0.442160000000    -0.178841   
N9       N      0.787980000000     0.098030000000     0.517500000000    -0.218482   
N10      N      0.947770000000     0.204970000000     0.452610000000    -0.198292   
N11      N      0.109500000000     0.186610000000     0.465160000000    -0.178076   
N12      N      0.951540000000     0.244230000000     0.518290000000    -0.218327   
N13      N      0.721880000000     0.728700000000     0.794740000000    -0.19798    
N14      N      0.790680000000     0.797080000000     0.568840000000    -0.17835    
N15      N      0.682080000000     0.766520000000     0.790260000000    -0.21847    
N16      N      0.736460000000     0.739300000000     0.061710000000    -0.197479   
N17      N      0.796160000000     0.803050000000     0.298600000000    -0.177977   
N18      N      0.788410000000     0.728590000000     0.034400000000    -0.218035   
N19      N      0.817430000000     0.235360000000     0.603240000000    -0.198855   
N20      N      0.744940000000     0.299510000000     0.828920000000    -0.178845   
N21      N      0.857820000000     0.217510000000     0.660470000000    -0.218935   
N22      N      0.745790000000     0.295530000000     0.093590000000    -0.198543   
N23      N      0.809950000000     0.230800000000     0.325810000000    -0.178628   
N24      N      0.749080000000     0.246430000000     0.052680000000    -0.218472   
N25      N      0.715040000000     0.434790000000     0.968800000000    -0.198359   
N26      N      0.706720000000     0.594240000000     0.948040000000    -0.178401   
N27      N      0.708230000000     0.440030000000     0.063150000000    -0.21855    
N28      N      0.216100000000     0.779700000000     0.604780000000    -0.198102   
N29      N      0.288770000000     0.715070000000     0.829060000000    -0.178259   
N30      N      0.179330000000     0.803030000000     0.663330000000    -0.218182   
N31      N      0.304200000000     0.721390000000     0.105130000000    -0.198252   
N32      N      0.233020000000     0.787370000000     0.330150000000    -0.178618   
N33      N      0.337190000000     0.693610000000     0.164160000000    -0.218276   
N34      N      0.593830000000     0.686400000000     0.957980000000    -0.198403   
N35      N      0.430940000000     0.685480000000     0.969200000000    -0.178536   
N36      N      0.594060000000     0.656840000000     0.038370000000    -0.218366   
N37      N      0.302720000000     0.278790000000     0.847780000000    -0.198001   
N38      N      0.242270000000     0.211270000000     0.614920000000    -0.178208   
N39      N      0.329750000000     0.232400000000     0.865350000000    -0.218411   
N40      N      0.300900000000     0.285630000000     0.103620000000    -0.19836    
N41      N      0.241940000000     0.216330000000     0.335880000000    -0.178699   
N42      N      0.249510000000     0.302470000000     0.083760000000    -0.218468   
N43      N      0.604500000000     0.326530000000     0.960720000000    -0.197901   
N44      N      0.441330000000     0.328760000000     0.968130000000    -0.178103   
N45      N      0.603130000000     0.284300000000     0.020860000000    -0.218466   
N46      N      0.313470000000     0.583640000000     0.946270000000    -0.198277   
N47      N      0.326870000000     0.424510000000     0.964020000000    -0.178178   
N48      N      0.327220000000     0.579850000000     0.854110000000    -0.217746   
O1       O      0.340100000000     0.291460000000     0.042690000000    -0.253201   
O2       O      0.303460000000     0.318400000000     0.907210000000    -0.251482   
O3       O      0.393880000000     0.330390000000     0.927740000000    -0.248682   
O4       O      0.340500000000     0.381450000000     0.009630000000    -0.248974   
O5       O      0.328910000000     0.376920000000     0.927350000000    -0.247661   
O6       O      0.395040000000     0.328310000000     0.012750000000    -0.247541   
O7       O      0.303400000000     0.323510000000     0.040620000000    -0.25553    
O8       O      0.341880000000     0.288300000000     0.907630000000    -0.253446   
O9       O      0.324890000000     0.680800000000     0.059660000000    -0.253392   
O10      O      0.332150000000     0.700700000000     0.874900000000    -0.247196   
O11      O      0.306850000000     0.629930000000     0.987130000000    -0.248531   
O12      O      0.385570000000     0.660180000000     0.984030000000    -0.252261   
O13      O      0.382820000000     0.704370000000     0.949730000000    -0.247792   
O14      O      0.336650000000     0.628010000000     0.919630000000    -0.255138   
O15      O      0.311570000000     0.719450000000     0.014570000000    -0.252558   
O16      O      0.288290000000     0.693010000000     0.911800000000    -0.250711   
O17      O      0.702130000000     0.312640000000     0.877740000000    -0.25037    
O18      O      0.732270000000     0.337740000000     0.045390000000    -0.255242   
O19      O      0.650090000000     0.344180000000     0.925440000000    -0.25038    
O20      O      0.696250000000     0.389930000000     0.002900000000    -0.254251   
O21      O      0.721050000000     0.387980000000     0.929740000000    -0.251859   
O22      O      0.652380000000     0.321110000000     0.999720000000    -0.25449    
O23      O      0.746320000000     0.324610000000     0.908930000000    -0.252058   
O24      O      0.715600000000     0.295100000000     0.017970000000    -0.257322   
O25      O      0.720500000000     0.690000000000     0.856100000000    -0.252318   
O26      O      0.694810000000     0.728450000000     0.008370000000    -0.25003    
O27      O      0.689510000000     0.637120000000     0.905970000000    -0.250081   
O28      O      0.638010000000     0.693510000000     0.908670000000    -0.254424   
O29      O      0.643380000000     0.684350000000     0.991250000000    -0.256171   
O30      O      0.711370000000     0.642490000000     0.981560000000    -0.248036   
O31      O      0.695330000000     0.730040000000     0.874500000000    -0.256369   
O32      O      0.735680000000     0.702470000000     0.996370000000    -0.252529   
O33      O      0.818650000000     0.146350000000     0.473810000000    -0.253013   
O34      O      0.901010000000     0.190090000000     0.418190000000    -0.248807   
O35      O      0.844670000000     0.197860000000     0.559760000000    -0.256817   
O36      O      0.813740000000     0.193510000000     0.389210000000    -0.249294   
O37      O      0.845120000000     0.230770000000     0.393950000000    -0.2509     
O38      O      0.821290000000     0.230520000000     0.512340000000    -0.255366   
O39      O      0.866520000000     0.139060000000     0.460080000000    -0.253381   
O40      O      0.901050000000     0.209510000000     0.495900000000    -0.257896   
O41      O      0.832720000000     0.809960000000     0.517940000000    -0.249462   
O42      O      0.799350000000     0.841200000000     0.360490000000    -0.248893   
O43      O      0.882530000000     0.851810000000     0.481090000000    -0.254391   
O44      O      0.814930000000     0.890750000000     0.477660000000    -0.249513   
O45      O      0.836690000000     0.893680000000     0.401420000000    -0.251902   
O46      O      0.884730000000     0.829640000000     0.405830000000    -0.248271   
O47      O      0.788640000000     0.826480000000     0.493540000000    -0.249876   
O48      O      0.827710000000     0.802110000000     0.372020000000    -0.247489   
O49      O      0.139340000000     0.804600000000     0.458370000000    -0.250404   
O50      O      0.218270000000     0.872330000000     0.501480000000    -0.24909    
O51      O      0.190640000000     0.804600000000     0.376170000000    -0.248644   
O52      O      0.212890000000     0.785110000000     0.513980000000    -0.251516   
O53      O      0.193970000000     0.820390000000     0.561770000000    -0.253496   
O54      O      0.234840000000     0.808960000000     0.413190000000    -0.250668   
O55      O      0.140820000000     0.852680000000     0.467600000000    -0.252156   
O56      O      0.200880000000     0.876830000000     0.422640000000    -0.254062   
O57      O      0.204890000000     0.188960000000     0.380040000000    -0.251563   
O58      O      0.202540000000     0.200930000000     0.557440000000    -0.248213   
O59      O      0.227850000000     0.125450000000     0.438160000000    -0.251569   
O60      O      0.152580000000     0.156390000000     0.463420000000    -0.248391   
O61      O      0.159120000000     0.203980000000     0.475470000000    -0.245159   
O62      O      0.203270000000     0.121830000000     0.511690000000    -0.24993    
O63      O      0.244980000000     0.202050000000     0.423590000000    -0.249008   
O64      O      0.247360000000     0.184300000000     0.537190000000    -0.248233   


