data_structure

_audit_creation_method RASPA-1.0
_audit_creation_date 2023-6-5
_audit_author_name 'Poobodin Mano'

_cell_length_a    44.9504
_cell_length_b    44.2364
_cell_length_c    24.7978
_cell_angle_alpha 90.0391
_cell_angle_beta  89.8834
_cell_angle_gamma 90
_cell_volume      49308.9

_symmetry_cell_setting          triclinic
_symmetry_space_group_name_Hall 'P 1'
_symmetry_space_group_name_H-M  'P 1'
_symmetry_Int_Tables_number     1

_symmetry_equiv_pos_as_xyz 'x,y,z'

loop_
_atom_site_label
_atom_site_type_symbol
_atom_site_fract_x
_atom_site_fract_y
_atom_site_fract_z
_atom_site_charge
Br1      Br     0.172470000000     0.929390000000     0.612380000000    -0.20198    
Br2      Br     0.087450000000     0.814430000000     0.354370000000    -0.201434   
Br3      Br     0.854170000000     0.090980000000     0.343420000000    -0.199487   
Br4      Br     0.922090000000     0.231930000000     0.357810000000    -0.19507    
Br5      Br     0.705390000000     0.668370000000     0.756210000000    -0.203707   
Br6      Br     0.745710000000     0.664200000000     0.116720000000    -0.202034   
Br7      Br     0.779300000000     0.290470000000     0.892750000000    -0.192609   
Br8      Br     0.693530000000     0.231760000000     0.058400000000    -0.197823   
Br9      Br     0.737760000000     0.430530000000     0.029060000000    -0.19496    
Br10     Br     0.224770000000     0.703960000000     0.892530000000    -0.20044    
Br11     Br     0.271100000000     0.840840000000     0.362290000000    -0.201319   
Br12     Br     0.420980000000     0.670720000000     0.860380000000    -0.204489   
Br13     Br     0.186180000000     0.285180000000     0.594090000000    -0.199245   
Br14     Br     0.217160000000     0.164700000000     0.283630000000    -0.201507   
Br15     Br     0.425060000000     0.313820000000     0.099690000000    -0.203734   
Br16     Br     0.260170000000     0.424050000000     0.952530000000    -0.199581   
C1       C      0.302530000000     0.305630000000     0.067090000000     0.348899   
C2       C      0.396740000000     0.322420000000     0.979550000000     0.357349   
C3       C      0.309000000000     0.305420000000     0.878890000000     0.349848   
C4       C      0.325920000000     0.397300000000     0.981830000000     0.355732   
C5       C      0.323010000000     0.619850000000     0.988050000000     0.350355   
C6       C      0.302630000000     0.713520000000     0.078580000000     0.350576   
C7       C      0.391930000000     0.694130000000     0.973700000000     0.35664    
C8       C      0.297070000000     0.711200000000     0.893200000000     0.356633   
C9       C      0.710760000000     0.311120000000     0.869420000000     0.357143   
C10      C      0.615180000000     0.326010000000     0.971640000000     0.349274   
C11      C      0.701140000000     0.305200000000     0.055510000000     0.356544   
C12      C      0.686990000000     0.400580000000     0.951660000000     0.3557     
C13      C      0.679520000000     0.622730000000     0.953280000000     0.351698   
C14      C      0.700820000000     0.713390000000     0.860340000000     0.358117   
C15      C      0.610370000000     0.698800000000     0.962470000000     0.349991   
C16      C      0.702840000000     0.711360000000     0.051850000000     0.35528    
C17      C      0.805050000000     0.216240000000     0.553280000000     0.348438   
C18      C      0.822590000000     0.121700000000     0.448460000000     0.357341   
C19      C      0.799330000000     0.212420000000     0.369060000000     0.348741   
C20      C      0.893890000000     0.197330000000     0.462170000000     0.35648    
C21      C      0.800170000000     0.807120000000     0.547780000000     0.346614   
C22      C      0.893240000000     0.829200000000     0.458070000000     0.348295   
C23      C      0.800370000000     0.805010000000     0.365790000000     0.349427   
C24      C      0.822020000000     0.899570000000     0.454140000000     0.347821   
C25      C      0.112170000000     0.828550000000     0.475260000000     0.355455   
C26      C      0.208300000000     0.808630000000     0.395380000000     0.354854   
C27      C      0.180250000000     0.900840000000     0.491630000000     0.355373   
C28      C      0.203590000000     0.805580000000     0.575930000000     0.349028   
C29      C      0.202120000000     0.213140000000     0.379320000000     0.354563   
C30      C      0.181710000000     0.123320000000     0.488740000000     0.347214   
C31      C      0.207710000000     0.216570000000     0.564970000000     0.355906   
C32      C      0.112480000000     0.196970000000     0.471350000000     0.349565   
C33      C      0.178560000000     0.947710000000     0.542520000000     0.18996    
C34      C      0.186960000000     0.947770000000     0.447850000000     0.0818874  
C35      C      0.179630000000     0.979360000000     0.542940000000    -0.117479   
C36      C      0.163620000000     0.045360000000     0.525640000000    -0.0755295  
C37      C      0.188200000000     0.979270000000     0.447400000000    -0.0883689  
C38      C      0.184470000000     0.029090000000     0.495180000000     0.0332535  
C39      C      0.184290000000     0.995490000000     0.495210000000     0.0586679  
C40      C      0.163320000000     0.076900000000     0.523680000000     0.0740303  
C41      C      0.204200000000     0.076790000000     0.463090000000     0.0747435  
C42      C      0.205070000000     0.045230000000     0.463970000000    -0.0747531  
C43      C      0.067430000000     0.821670000000     0.422160000000     0.189638   
C44      C      0.064880000000     0.828960000000     0.517010000000     0.0806371  
C45      C      0.036290000000     0.820970000000     0.419680000000    -0.117341   
C46      C      0.971410000000     0.839220000000     0.420490000000    -0.0756104  
C47      C      0.033870000000     0.828460000000     0.515440000000    -0.0888241  
C48      C      0.986030000000     0.825160000000     0.463610000000     0.0328541  
C49      C      0.019130000000     0.824730000000     0.466330000000     0.0581859  
C50      C      0.940370000000     0.840040000000     0.419000000000     0.073436   
C51      C      0.937670000000     0.813350000000     0.501730000000     0.0731039  
C52      C      0.968690000000     0.811970000000     0.504370000000    -0.0757161  
C53      C      0.833620000000     0.073950000000     0.404770000000     0.18896    
C54      C      0.804380000000     0.075900000000     0.484700000000     0.0799452  
C55      C      0.832250000000     0.042320000000     0.405510000000    -0.117803   
C56      C      0.812750000000     0.976460000000     0.402420000000    -0.0763088  
C57      C      0.802860000000     0.044420000000     0.486370000000    -0.0900783  
C58      C      0.816970000000     0.993700000000     0.449180000000     0.0322476  
C59      C      0.817170000000     0.027240000000     0.446850000000     0.0577805  
C60      C      0.814000000000     0.944960000000     0.404990000000     0.0731477  
C61      C      0.823210000000     0.947070000000     0.499050000000     0.0725136  
C62      C      0.821920000000     0.978610000000     0.497990000000    -0.0763783  
C63      C      0.940030000000     0.213800000000     0.420680000000     0.19098    
C64      C      0.939640000000     0.190720000000     0.507200000000     0.0814986  
C65      C      0.971180000000     0.215070000000     0.422090000000    -0.11683    
C66      C      0.036160000000     0.196550000000     0.420280000000    -0.0747769  
C67      C      0.970600000000     0.191710000000     0.509410000000    -0.0891249  
C68      C      0.019910000000     0.203490000000     0.466980000000     0.0335798  
C69      C      0.986820000000     0.203640000000     0.466290000000     0.0591866  
C70      C      0.067170000000     0.195010000000     0.422220000000     0.0748628  
C71      C      0.066580000000     0.207530000000     0.515200000000     0.0750142  
C72      C      0.035570000000     0.209360000000     0.514660000000    -0.0751203  
C73      C      0.718240000000     0.709530000000     0.767860000000     0.189584   
C74      C      0.723910000000     0.755030000000     0.817840000000     0.0799962  
C75      C      0.732400000000     0.722990000000     0.723560000000    -0.117702   
C76      C      0.778220000000     0.750790000000     0.648390000000    -0.0757805  
C77      C      0.738040000000     0.768850000000     0.774230000000    -0.089785   
C78      C      0.757750000000     0.767130000000     0.679590000000     0.0323747  
C79      C      0.742540000000     0.752820000000     0.726380000000     0.0579856  
C80      C      0.792250000000     0.764540000000     0.604490000000     0.0731247  
C81      C      0.766380000000     0.810290000000     0.621480000000     0.0725282  
C82      C      0.751950000000     0.797250000000     0.665650000000    -0.0762276  
C83      C      0.735990000000     0.706230000000     0.128500000000     0.188998   
C84      C      0.711290000000     0.752610000000     0.110320000000     0.0798018  
C85      C      0.749800000000     0.719410000000     0.173390000000    -0.117477   
C86      C      0.788890000000     0.757860000000     0.246180000000    -0.0757641  
C87      C      0.724770000000     0.766160000000     0.154760000000    -0.0900596  
C88      C      0.758980000000     0.763800000000     0.234340000000     0.0325561  
C89      C      0.744330000000     0.749600000000     0.186920000000     0.0578384  
C90      C      0.802370000000     0.771740000000     0.290480000000     0.0735702  
C91      C      0.757400000000     0.797100000000     0.311910000000     0.0728393  
C92      C      0.743230000000     0.783620000000     0.268000000000    -0.07629    
C93      C      0.754760000000     0.288690000000     0.828960000000     0.190484   
C94      C      0.710600000000     0.296110000000     0.778040000000     0.0811943  
C95      C      0.768470000000     0.275560000000     0.783850000000    -0.116859   
C96      C      0.783790000000     0.231590000000     0.693230000000    -0.0757674  
C97      C      0.723880000000     0.283310000000     0.732600000000    -0.0895991  
C98      C      0.767220000000     0.258210000000     0.687620000000     0.0330572  
C99      C      0.753060000000     0.272670000000     0.735240000000     0.0586255  
C100     C      0.796360000000     0.217870000000     0.647850000000     0.0739674  
C101     C      0.776970000000     0.256440000000     0.591600000000     0.0733898  
C102     C      0.763930000000     0.270640000000     0.636060000000    -0.0760727  
C103     C      0.712200000000     0.259970000000     0.107230000000     0.19178    
C104     C      0.726440000000     0.308650000000     0.138570000000     0.0831311  
C105     C      0.725750000000     0.246760000000     0.152320000000    -0.1162     
C106     C      0.743060000000     0.226270000000     0.265310000000    -0.0749772  
C107     C      0.740000000000     0.296000000000     0.183680000000    -0.0877731  
C108     C      0.755490000000     0.250860000000     0.237680000000     0.0342479  
C109     C      0.740080000000     0.264690000000     0.190790000000     0.0595953  
C110     C      0.758010000000     0.213630000000     0.309210000000     0.0754864  
C111     C      0.797280000000     0.248990000000     0.299100000000     0.0763289  
C112     C      0.782970000000     0.262130000000     0.255100000000    -0.0740373  
C113     C      0.708640000000     0.448050000000     0.981200000000     0.189791   
C114     C      0.670840000000     0.446820000000     0.914350000000     0.0805436  
C115     C      0.708210000000     0.479740000000     0.980190000000    -0.116883   
C116     C      0.711940000000     0.546730000000     0.951010000000    -0.0740012  
C117     C      0.670040000000     0.478280000000     0.912710000000    -0.0897631  
C118     C      0.686380000000     0.528690000000     0.947760000000     0.034125   
C119     C      0.688450000000     0.495170000000     0.946550000000     0.0588209  
C120     C      0.709290000000     0.578210000000     0.952710000000     0.0780813  
C121     C      0.656730000000     0.574390000000     0.948360000000     0.0761707  
C122     C      0.658560000000     0.542940000000     0.946440000000    -0.075604   
C123     C      0.252250000000     0.722330000000     0.842360000000     0.190017   
C124     C      0.299820000000     0.737920000000     0.810980000000     0.0814286  
C125     C      0.239000000000     0.735460000000     0.796870000000    -0.116677   
C126     C      0.218520000000     0.750800000000     0.683270000000    -0.0748727  
C127     C      0.287140000000     0.751030000000     0.765420000000    -0.0887225  
C128     C      0.242500000000     0.764450000000     0.709910000000     0.0337077  
C129     C      0.256380000000     0.750030000000     0.757890000000     0.0587899  
C130     C      0.205780000000     0.764820000000     0.638390000000     0.0748535  
C131     C      0.239970000000     0.805440000000     0.645270000000     0.0757299  
C132     C      0.253160000000     0.792130000000     0.690290000000    -0.0747022  
C133     C      0.249530000000     0.807130000000     0.331970000000     0.189893   
C134     C      0.210350000000     0.771150000000     0.327620000000     0.08187    
C135     C      0.263120000000     0.793570000000     0.287090000000    -0.116741   
C136     C      0.277940000000     0.771660000000     0.173970000000    -0.0749615  
C137     C      0.223440000000     0.757380000000     0.282910000000    -0.0880485  
C138     C      0.264300000000     0.754120000000     0.214080000000     0.0337561  
C139     C      0.250120000000     0.768540000000     0.261940000000     0.0586229  
C140     C      0.290800000000     0.757720000000     0.129020000000     0.0750514  
C141     C      0.277090000000     0.709450000000     0.162300000000     0.0748271  
C142     C      0.264120000000     0.722630000000     0.207810000000    -0.0753636  
C143     C      0.438280000000     0.687920000000     0.924720000000     0.18903    
C144     C      0.437300000000     0.710900000000     0.011380000000     0.0796189  
C145     C      0.469330000000     0.690530000000     0.923540000000    -0.118006   
C146     C      0.533490000000     0.711590000000     0.919780000000    -0.0758754  
C147     C      0.468230000000     0.713720000000     0.011030000000    -0.089938   
C148     C      0.517740000000     0.704440000000     0.966900000000     0.0323151  
C149     C      0.484670000000     0.703200000000     0.967020000000     0.0577171  
C150     C      0.564550000000     0.710370000000     0.919370000000     0.0735799  
C151     C      0.564940000000     0.696120000000     0.011510000000     0.0731537  
C152     C      0.533900000000     0.697140000000     0.013360000000    -0.0761563  
C153     C      0.215850000000     0.258930000000     0.625340000000     0.189597   
C154     C      0.244770000000     0.214110000000     0.632290000000     0.0799132  
C155     C      0.231230000000     0.271370000000     0.669130000000    -0.117561   
C156     C      0.278070000000     0.298270000000     0.743060000000    -0.075271   
C157     C      0.260300000000     0.226040000000     0.676080000000    -0.0896899  
C158     C      0.269330000000     0.267860000000     0.742430000000     0.0330169  
C159     C      0.253550000000     0.254950000000     0.695120000000     0.0583803  
C160     C      0.291740000000     0.310360000000     0.788760000000     0.0750018  
C161     C      0.288740000000     0.262960000000     0.833050000000     0.0738715  
C162     C      0.275110000000     0.250100000000     0.787960000000    -0.075657   
C163     C      0.223510000000     0.207740000000     0.289910000000     0.190038   
C164     C      0.220040000000     0.255840000000     0.332280000000     0.0806398  
C165     C      0.237520000000     0.221100000000     0.245390000000    -0.117422   
C166     C      0.282930000000     0.251900000000     0.173490000000    -0.0750284  
C167     C      0.233910000000     0.269600000000     0.288340000000    -0.0886157  
C168     C      0.258590000000     0.266300000000     0.197780000000     0.0335968  
C169     C      0.243060000000     0.252190000000     0.244360000000     0.0587791  
C170     C      0.297380000000     0.265420000000     0.129870000000     0.0758708  
C171     C      0.264320000000     0.307150000000     0.133540000000     0.0747581  
C172     C      0.249360000000     0.294280000000     0.177310000000    -0.0748017  
C173     C      0.442920000000     0.316880000000     0.028980000000     0.189623   
C174     C      0.442600000000     0.319070000000     0.933210000000     0.0799479  
C175     C      0.474070000000     0.316030000000     0.028490000000    -0.118184   
C176     C      0.538200000000     0.336290000000     0.016090000000    -0.0759264  
C177     C      0.473600000000     0.318120000000     0.931780000000    -0.0900097  
C178     C      0.522790000000     0.318140000000     0.979210000000     0.0326683  
C179     C      0.489740000000     0.317110000000     0.979800000000     0.058028   
C180     C      0.569150000000     0.338260000000     0.013510000000     0.0740026  
C181     C      0.570170000000     0.304180000000     0.939680000000     0.0740474  
C182     C      0.539180000000     0.301770000000     0.940980000000    -0.0757686  
C183     C      0.297110000000     0.443450000000     0.971930000000     0.189581   
C184     C      0.347870000000     0.444850000000     0.998460000000     0.0803452  
C185     C      0.295990000000     0.475130000000     0.973780000000    -0.11709    
C186     C      0.305540000000     0.541940000000     0.949270000000    -0.0745614  
C187     C      0.347250000000     0.476310000000     0.000560000000    -0.0892676  
C188     C      0.320440000000     0.525520000000     0.989290000000     0.0334222  
C189     C      0.321160000000     0.491900000000     0.988010000000     0.0583401  
C190     C      0.306250000000     0.573530000000     0.949870000000     0.0756306  
C191     C      0.335590000000     0.573090000000     0.029210000000     0.0746581  
C192     C      0.335310000000     0.541540000000     0.029870000000    -0.0758377  
Cd1      Cd     0.333090000000     0.332220000000     0.976020000000     0.516467   
Cd2      Cd     0.328270000000     0.684990000000     0.984170000000     0.516891   
Cd3      Cd     0.678520000000     0.335750000000     0.960960000000     0.51921    
Cd4      Cd     0.673680000000     0.687690000000     0.956470000000     0.516195   
Cd5      Cd     0.830210000000     0.186520000000     0.459590000000     0.516458   
Cd6      Cd     0.829030000000     0.834660000000     0.455890000000     0.512223   
Cd7      Cd     0.176140000000     0.835500000000     0.484940000000     0.518816   
Cd8      Cd     0.176130000000     0.188000000000     0.476620000000     0.516606   
H1       H      0.146550000000     0.088600000000     0.547250000000     0.0398312  
H2       H      0.189840000000     0.936400000000     0.409430000000     0.043947   
H3       H      0.221830000000     0.033560000000     0.440430000000     0.0625171  
H4       H      0.191590000000     0.990850000000     0.409390000000     0.0660783  
H5       H      0.147100000000     0.033810000000     0.549910000000     0.0622573  
H6       H      0.177070000000     0.991370000000     0.580780000000     0.0862304  
H7       H      0.220380000000     0.088430000000     0.438110000000     0.0453321  
H8       H      0.929990000000     0.851360000000     0.385130000000     0.0400156  
H9       H      0.075090000000     0.832400000000     0.556130000000     0.041299   
H10      H      0.978970000000     0.800450000000     0.538040000000     0.059813   
H11      H      0.021570000000     0.831720000000     0.552590000000     0.0635176  
H12      H      0.983820000000     0.850110000000     0.388460000000     0.0622826  
H13      H      0.025550000000     0.817100000000     0.381220000000     0.0862951  
H14      H      0.925090000000     0.802970000000     0.534160000000     0.0394776  
H15      H      0.810810000000     0.932450000000     0.367830000000     0.0396123  
H16      H      0.793180000000     0.088110000000     0.516780000000     0.0384905  
H17      H      0.825540000000     0.991090000000     0.535000000000     0.0592383  
H18      H      0.790520000000     0.033610000000     0.518600000000     0.0626234  
H19      H      0.808470000000     0.987240000000     0.364000000000     0.0619767  
H20      H      0.843460000000     0.029530000000     0.374210000000     0.0862484  
H21      H      0.827530000000     0.936250000000     0.537480000000     0.0386842  
H22      H      0.078870000000     0.189130000000     0.385390000000     0.0423384  
H23      H      0.928280000000     0.180710000000     0.541420000000     0.0392562  
H24      H      0.023980000000     0.215330000000     0.551490000000     0.0611937  
H25      H      0.981730000000     0.182360000000     0.544320000000     0.0636749  
H26      H      0.025000000000     0.191510000000     0.382650000000     0.0642292  
H27      H      0.983120000000     0.225260000000     0.388740000000     0.0876402  
H28      H      0.077820000000     0.211950000000     0.553040000000     0.0432323  
H29      H      0.807980000000     0.751130000000     0.581460000000     0.0403129  
H30      H      0.721220000000     0.768520000000     0.854060000000     0.0382621  
H31      H      0.736030000000     0.810610000000     0.688220000000     0.0587637  
H32      H      0.745810000000     0.791910000000     0.778460000000     0.0623891  
H33      H      0.783700000000     0.727590000000     0.658150000000     0.0624096  
H34      H      0.735110000000     0.710180000000     0.686610000000     0.0860595  
H35      H      0.761170000000     0.833600000000     0.611910000000     0.0387459  
H36      H      0.825600000000     0.766700000000     0.298070000000     0.0402945  
H37      H      0.696440000000     0.766650000000     0.086690000000     0.0382102  
H38      H      0.719960000000     0.788520000000     0.260850000000     0.05886    
H39      H      0.720150000000     0.789710000000     0.163290000000     0.0623131  
H40      H      0.802020000000     0.742980000000     0.220900000000     0.0625227  
H41      H      0.764480000000     0.705870000000     0.198160000000     0.0863195  
H42      H      0.744410000000     0.812300000000     0.336920000000     0.0386842  
H43      H      0.808820000000     0.197150000000     0.653810000000     0.0406172  
H44      H      0.687810000000     0.303770000000     0.773760000000     0.0393269  
H45      H      0.751550000000     0.291380000000     0.630090000000     0.0600668  
H46      H      0.711060000000     0.281260000000     0.695840000000     0.0632624  
H47      H      0.786600000000     0.221070000000     0.732330000000     0.0635162  
H48      H      0.791280000000     0.267780000000     0.786720000000     0.0874634  
H49      H      0.773910000000     0.266780000000     0.552360000000     0.0393433  
H50      H      0.747630000000     0.194700000000     0.329660000000     0.04072    
H51      H      0.727280000000     0.333070000000     0.135100000000     0.0466302  
H52      H      0.793640000000     0.280790000000     0.234450000000     0.0648151  
H53      H      0.750320000000     0.310820000000     0.212980000000     0.0661375  
H54      H      0.721700000000     0.217040000000     0.253590000000     0.0623649  
H55      H      0.725600000000     0.222390000000     0.156620000000     0.0877567  
H56      H      0.818540000000     0.258380000000     0.311130000000     0.0477503  
H57      H      0.729570000000     0.591420000000     0.955060000000     0.0468149  
H58      H      0.655710000000     0.434920000000     0.887750000000     0.038279   
H59      H      0.638210000000     0.529870000000     0.944780000000     0.0600195  
H60      H      0.654860000000     0.489310000000     0.885120000000     0.0637839  
H61      H      0.733890000000     0.536640000000     0.951640000000     0.0652633  
H62      H      0.722850000000     0.492270000000     0.006710000000     0.0880503  
H63      H      0.634740000000     0.584470000000     0.947460000000     0.0400953  
H64      H      0.187290000000     0.753530000000     0.618880000000     0.0412459  
H65      H      0.323830000000     0.739370000000     0.814500000000     0.0428054  
H66      H      0.271340000000     0.803750000000     0.710010000000     0.0616227  
H67      H      0.301560000000     0.761630000000     0.735950000000     0.0647289  
H68      H      0.209800000000     0.729230000000     0.696530000000     0.0630354  
H69      H      0.215030000000     0.734740000000     0.792600000000     0.0869693  
H70      H      0.248850000000     0.826910000000     0.631610000000     0.0445367  
H71      H      0.300970000000     0.772100000000     0.098770000000     0.0410587  
H72      H      0.189540000000     0.761590000000     0.341800000000     0.0440827  
H73      H      0.254260000000     0.708120000000     0.238130000000     0.0604144  
H74      H      0.212330000000     0.738300000000     0.264400000000     0.0657517  
H75      H      0.278290000000     0.796090000000     0.176720000000     0.0632875  
H76      H      0.284120000000     0.802390000000     0.272430000000     0.0858779  
H77      H      0.276440000000     0.685010000000     0.159060000000     0.0408367  
H78      H      0.575880000000     0.715610000000     0.881870000000     0.0407169  
H79      H      0.425690000000     0.719180000000     0.046820000000     0.0382085  
H80      H      0.522660000000     0.691230000000     0.050560000000     0.0590855  
H81      H      0.479160000000     0.724100000000     0.045240000000     0.0624003  
H82      H      0.521920000000     0.717890000000     0.883210000000     0.0620202  
H83      H      0.481490000000     0.682040000000     0.888930000000     0.0860216  
H84      H      0.576580000000     0.689730000000     0.048030000000     0.0394601  
H85      H      0.297980000000     0.334030000000     0.787780000000     0.0427639  
H86      H      0.250890000000     0.191540000000     0.619290000000     0.0385626  
H87      H      0.268490000000     0.226570000000     0.789350000000     0.0601763  
H88      H      0.277680000000     0.212680000000     0.694640000000     0.0630237  
H89      H      0.274410000000     0.312680000000     0.708410000000     0.0632742  
H90      H      0.225360000000     0.293760000000     0.683370000000     0.0877202  
H91      H      0.292450000000     0.248550000000     0.867760000000     0.0399113  
H92      H      0.316170000000     0.253560000000     0.112350000000     0.0437331  
H93      H      0.213720000000     0.270430000000     0.365550000000     0.0424205  
H94      H      0.230440000000     0.306030000000     0.194510000000     0.0617573  
H95      H      0.237960000000     0.293730000000     0.289450000000     0.0650461  
H96      H      0.291090000000     0.230470000000     0.188500000000     0.0636949  
H97      H      0.243820000000     0.207150000000     0.211290000000     0.0866814  
H98      H      0.256430000000     0.328770000000     0.118730000000     0.0433921  
H99      H      0.580180000000     0.352930000000     0.042270000000     0.0401297  
H100     H      0.431240000000     0.320500000000     0.894750000000     0.0380119  
H101     H      0.528170000000     0.287150000000     0.912200000000     0.0599034  
H102     H      0.484840000000     0.319110000000     0.893140000000     0.0626086  
H103     H      0.526390000000     0.349580000000     0.045950000000     0.0619919  
H104     H      0.486040000000     0.314370000000     0.066270000000     0.0863624  
H105     H      0.582050000000     0.291350000000     0.909210000000     0.0411532  
H106     H      0.294790000000     0.585390000000     0.917790000000     0.0440457  
H107     H      0.368840000000     0.434060000000     0.008250000000     0.0398164  
H108     H      0.346680000000     0.529800000000     0.062130000000     0.0599051  
H109     H      0.367410000000     0.488340000000     0.011090000000     0.0633237  
H110     H      0.293990000000     0.530510000000     0.916830000000     0.0638308  
H111     H      0.275310000000     0.486600000000     0.964680000000     0.0870947  
H112     H      0.347560000000     0.584580000000     0.061140000000     0.039632   
N1       N      0.181930000000     0.931870000000     0.494660000000    -0.189632   
N2       N      0.183250000000     0.092450000000     0.492190000000    -0.176232   
N3       N      0.081740000000     0.826190000000     0.470910000000    -0.190273   
N4       N      0.923660000000     0.827410000000     0.459510000000    -0.177447   
N5       N      0.820170000000     0.090750000000     0.445180000000    -0.191035   
N6       N      0.819580000000     0.930420000000     0.452800000000    -0.177513   
N7       N      0.924280000000     0.200990000000     0.462930000000    -0.190281   
N8       N      0.082190000000     0.200050000000     0.469490000000    -0.17669    
N9       N      0.714120000000     0.725590000000     0.815290000000    -0.191053   
N10      N      0.786330000000     0.794030000000     0.591140000000    -0.177183   
N11      N      0.716750000000     0.722960000000     0.096740000000    -0.190647   
N12      N      0.786760000000     0.791280000000     0.322910000000    -0.177772   
N13      N      0.725630000000     0.298790000000     0.826110000000    -0.190093   
N14      N      0.792880000000     0.230170000000     0.597460000000    -0.177482   
N15      N      0.712910000000     0.291020000000     0.100000000000    -0.188809   
N16      N      0.784890000000     0.224950000000     0.325940000000    -0.175599   
N17      N      0.689320000000     0.431570000000     0.949150000000    -0.190462   
N18      N      0.681890000000     0.591880000000     0.951470000000    -0.175717   
N19      N      0.282780000000     0.723610000000     0.849430000000    -0.189945   
N20      N      0.216440000000     0.791930000000     0.619630000000    -0.176294   
N21      N      0.222960000000     0.795950000000     0.352120000000    -0.189394   
N22      N      0.290260000000     0.726870000000     0.123180000000    -0.176858   
N23      N      0.422260000000     0.697650000000     0.969260000000    -0.190979   
N24      N      0.580080000000     0.702100000000     0.964600000000    -0.177309   
N25      N      0.222510000000     0.230100000000     0.607100000000    -0.190717   
N26      N      0.296700000000     0.292910000000     0.833590000000    -0.17708    
N27      N      0.215040000000     0.225160000000     0.333790000000    -0.190093   
N28      N      0.288110000000     0.292800000000     0.110060000000    -0.176161   
N29      N      0.427170000000     0.319190000000     0.981190000000    -0.191022   
N30      N      0.584960000000     0.322610000000     0.975200000000    -0.177066   
N31      N      0.323230000000     0.428280000000     0.984000000000    -0.190177   
N32      N      0.321450000000     0.588930000000     0.989190000000    -0.176557   
O1       O      0.381000000000     0.325280000000     0.021520000000    -0.220941   
O2       O      0.304990000000     0.380040000000     0.967280000000    -0.218057   
O3       O      0.324500000000     0.292950000000     0.044440000000    -0.236762   
O4       O      0.313130000000     0.290250000000     0.921490000000    -0.246149   
O5       O      0.316420000000     0.333020000000     0.881140000000    -0.240033   
O6       O      0.294690000000     0.330830000000     0.047490000000    -0.239647   
O7       O      0.382630000000     0.323930000000     0.935370000000    -0.248243   
O8       O      0.350020000000     0.384060000000     0.993800000000    -0.245614   
O9       O      0.301920000000     0.685180000000     0.071380000000    -0.24306    
O10      O      0.324890000000     0.713920000000     0.899820000000    -0.240727   
O11      O      0.337590000000     0.634670000000     0.022820000000    -0.243954   
O12      O      0.376650000000     0.680150000000     0.939040000000    -0.223563   
O13      O      0.377410000000     0.704060000000     0.013900000000    -0.246026   
O14      O      0.310460000000     0.635340000000     0.951630000000    -0.236858   
O15      O      0.315340000000     0.728730000000     0.041890000000    -0.24317    
O16      O      0.283740000000     0.696190000000     0.929270000000    -0.221277   
O17      O      0.630560000000     0.312290000000     0.936420000000    -0.238476   
O18      O      0.701230000000     0.384730000000     0.985160000000    -0.216758   
O19      O      0.683570000000     0.318490000000     0.866780000000    -0.242251   
O20      O      0.688640000000     0.291070000000     0.017420000000    -0.220752   
O21      O      0.702690000000     0.333620000000     0.049490000000    -0.231027   
O22      O      0.722920000000     0.315710000000     0.914550000000    -0.220841   
O23      O      0.629360000000     0.343710000000     0.002440000000    -0.247141   
O24      O      0.669180000000     0.386030000000     0.921820000000    -0.249216   
O25      O      0.691780000000     0.686410000000     0.862490000000    -0.224726   
O26      O      0.707150000000     0.684760000000     0.034980000000    -0.22222    
O27      O      0.702130000000     0.639820000000     0.955660000000    -0.229235   
O28      O      0.625020000000     0.703030000000     0.919390000000    -0.244129   
O29      O      0.625290000000     0.690180000000     0.002930000000    -0.24387    
O30      O      0.654490000000     0.635890000000     0.952590000000    -0.243439   
O31      O      0.697060000000     0.728550000000     0.903170000000    -0.247364   
O32      O      0.684840000000     0.726940000000     0.024080000000    -0.245503   
O33      O      0.808580000000     0.136930000000     0.483580000000    -0.245403   
O34      O      0.878220000000     0.202940000000     0.421190000000    -0.215724   
O35      O      0.819110000000     0.191520000000     0.556800000000    -0.241544   
O36      O      0.788810000000     0.190020000000     0.394740000000    -0.242576   
O37      O      0.824040000000     0.222610000000     0.385680000000    -0.229249   
O38      O      0.802760000000     0.227180000000     0.506330000000    -0.247906   
O39      O      0.839800000000     0.136820000000     0.418530000000    -0.22508    
O40      O      0.879750000000     0.186870000000     0.502260000000    -0.246827   
O41      O      0.877030000000     0.818870000000     0.495620000000    -0.244341   
O42      O      0.818720000000     0.883490000000     0.412260000000    -0.244589   
O43      O      0.818550000000     0.792760000000     0.518590000000    -0.243748   
O44      O      0.827400000000     0.800230000000     0.377380000000    -0.24573    
O45      O      0.786740000000     0.823440000000     0.396120000000    -0.247285   
O46      O      0.795300000000     0.834310000000     0.534320000000    -0.243586   
O47      O      0.879600000000     0.841700000000     0.419420000000    -0.246172   
O48      O      0.828280000000     0.885420000000     0.497080000000    -0.244656   
O49      O      0.184580000000     0.797270000000     0.414310000000    -0.23852    
O50      O      0.213100000000     0.830430000000     0.557360000000    -0.237345   
O51      O      0.129190000000     0.830180000000     0.434770000000    -0.222229   
O52      O      0.183530000000     0.886740000000     0.447470000000    -0.23632    
O53      O      0.175040000000     0.884370000000     0.532140000000    -0.221516   
O54      O      0.125040000000     0.830220000000     0.520600000000    -0.24127    
O55      O      0.217030000000     0.832500000000     0.418540000000    -0.219377   
O56      O      0.181350000000     0.794320000000     0.551870000000    -0.242002   
O57      O      0.199390000000     0.138450000000     0.459410000000    -0.232376   
O58      O      0.126950000000     0.200220000000     0.514740000000    -0.23737    
O59      O      0.197690000000     0.185150000000     0.385410000000    -0.21868    
O60      O      0.214810000000     0.190610000000     0.547470000000    -0.248516   
O61      O      0.185960000000     0.228800000000     0.541370000000    -0.219987   
O62      O      0.194250000000     0.229520000000     0.418790000000    -0.242149   
O63      O      0.161950000000     0.138390000000     0.513470000000    -0.245958   
O64      O      0.127680000000     0.189970000000     0.430100000000    -0.243826   


