data_structure

_audit_creation_method RASPA-1.0
_audit_creation_date 2023-5-23
_audit_author_name 'Poobodin Mano'

_cell_length_a    27.9581
_cell_length_b    27.973
_cell_length_c    57.3198
_cell_angle_alpha 90.0018
_cell_angle_beta  90.0002
_cell_angle_gamma 89.9996
_cell_volume      44828.2

_symmetry_cell_setting          triclinic
_symmetry_space_group_name_Hall 'P 1'
_symmetry_space_group_name_H-M  'P 1'
_symmetry_Int_Tables_number     1

_symmetry_equiv_pos_as_xyz 'x,y,z'

loop_
_atom_site_label
_atom_site_type_symbol
_atom_site_fract_x
_atom_site_fract_y
_atom_site_fract_z
_atom_site_charge
C1       C      0.480970000000     0.826130000000     0.629990000000     0.345155   
C2       C      0.481220000000     0.642830000000     0.624450000000     0.345251   
C3       C      0.571210000000     0.735010000000     0.581400000000     0.345627   
C4       C      0.572770000000     0.734160000000     0.672100000000     0.345404   
C5       C      0.327910000000     0.142870000000     0.632030000000     0.345241   
C6       C      0.327980000000     0.326160000000     0.626560000000     0.345092   
C7       C      0.235850000000     0.234060000000     0.584650000000     0.345402   
C8       C      0.238440000000     0.234570000000     0.675410000000     0.345248   
C9       C      0.560180000000     0.559470000000     0.380280000000     0.34511    
C10      C      0.743480000000     0.559550000000     0.374760000000     0.345235   
C11      C      0.651820000000     0.649240000000     0.331460000000     0.345549   
C12      C      0.652370000000     0.651450000000     0.422210000000     0.345345   
C13      C      0.060200000000     0.406210000000     0.377080000000     0.345186   
C14      C      0.243520000000     0.405970000000     0.382660000000     0.345054   
C15      C      0.151410000000     0.315710000000     0.425650000000     0.345303   
C16      C      0.152270000000     0.314500000000     0.334970000000     0.345418   
C17      C      0.750840000000     0.905600000000     0.881910000000     0.344261   
C18      C      0.569000000000     0.905550000000     0.876220000000     0.343298   
C19      C      0.657680000000     0.814900000000     0.831380000000     0.347319   
C20      C      0.660230000000     0.804830000000     0.920800000000     0.345931   
C21      C      0.068230000000     0.057560000000     0.884610000000     0.3441     
C22      C      0.250990000000     0.058070000000     0.877970000000     0.343556   
C23      C      0.159950000000     0.149610000000     0.834930000000     0.346975   
C24      C      0.160660000000     0.153630000000     0.924910000000     0.345841   
C25      C      0.981680000000     0.137130000000     0.124980000000     0.344298   
C26      C      0.981730000000     0.319000000000     0.130770000000     0.343331   
C27      C      0.072110000000     0.230150000000     0.175550000000     0.347221   
C28      C      0.082360000000     0.227910000000     0.086100000000     0.346098   
C29      C      0.829980000000     0.819730000000     0.122520000000     0.344074   
C30      C      0.829450000000     0.636990000000     0.129180000000     0.343588   
C31      C      0.737700000000     0.728010000000     0.172100000000     0.346983   
C32      C      0.734260000000     0.727160000000     0.082100000000     0.345919   
C33      C      0.890620000000     0.412370000000     0.137300000000    -0.0799377  
C34      C      0.916790000000     0.453760000000     0.131770000000     0.0361839  
C35      C      0.965230000000     0.448430000000     0.126000000000    -0.0804808  
C36      C      0.986280000000     0.403190000000     0.126000000000     0.0708422  
C37      C      0.912660000000     0.367460000000     0.136700000000     0.0704716  
C38      C      0.893730000000     0.502000000000     0.131600000000     0.0362092  
C39      C      0.845590000000     0.507370000000     0.125240000000    -0.0804365  
C40      C      0.824690000000     0.552690000000     0.124810000000     0.0707757  
C41      C      0.897850000000     0.588330000000     0.136310000000     0.0706226  
C42      C      0.919700000000     0.543380000000     0.137360000000    -0.0800841  
C43      C      0.920590000000     0.913050000000     0.114390000000    -0.080305   
C44      C      0.894260000000     0.954520000000     0.119500000000     0.0361669  
C45      C      0.845710000000     0.949510000000     0.125000000000    -0.0806151  
C46      C      0.824840000000     0.904210000000     0.125600000000     0.0705827  
C47      C      0.898590000000     0.868150000000     0.115310000000     0.0704381  
C48      C      0.917520000000     0.002500000000     0.120020000000     0.0362638  
C49      C      0.964200000000     0.007700000000     0.128510000000    -0.0806912  
C50      C      0.985020000000     0.052930000000     0.129830000000     0.0706764  
C51      C      0.914830000000     0.088650000000     0.114560000000     0.0704175  
C52      C      0.892940000000     0.043760000000     0.112850000000    -0.080345   
C53      C      0.115430000000     0.219220000000     0.975400000000    -0.0799179  
C54      C      0.145500000000     0.202360000000     0.993280000000     0.0364678  
C55      C      0.183980000000     0.172860000000     0.986930000000    -0.0805557  
C56      C      0.189300000000     0.157990000000     0.963830000000     0.0713249  
C57      C      0.122840000000     0.204900000000     0.952330000000     0.07096    
C58      C      0.134620000000     0.212520000000     0.018370000000     0.0364699  
C59      C      0.108920000000     0.253480000000     0.024940000000    -0.0805559  
C60      C      0.092930000000     0.258750000000     0.047870000000     0.0713984  
C61      C      0.131590000000     0.186890000000     0.058890000000     0.070907   
C62      C      0.146820000000     0.179610000000     0.035950000000    -0.0799136  
C63      C      0.634530000000     0.778110000000     0.981930000000    -0.0804827  
C64      C      0.675700000000     0.752780000000     0.988550000000     0.0364645  
C65      C      0.708840000000     0.740870000000     0.971020000000    -0.079968   
C66      C      0.701550000000     0.756010000000     0.948070000000     0.0709274  
C67      C      0.629240000000     0.794030000000     0.958990000000     0.0712669  
C68      C      0.685820000000     0.742010000000     0.013660000000     0.0364335  
C69      C      0.668640000000     0.771960000000     0.031520000000    -0.079889   
C70      C      0.682890000000     0.764650000000     0.054610000000     0.0709515  
C71      C      0.730330000000     0.698540000000     0.043170000000     0.0713059  
C72      C      0.715550000000     0.703760000000     0.020050000000    -0.0805143  
C73      C      0.475640000000     0.996700000000     0.869720000000    -0.0800239  
C74      C      0.434240000000     0.970610000000     0.875340000000     0.0362307  
C75      C      0.439550000000     0.922220000000     0.881170000000    -0.0805077  
C76      C      0.484790000000     0.901130000000     0.881130000000     0.0708013  
C77      C      0.520560000000     0.974610000000     0.870280000000     0.0705386  
C78      C      0.385990000000     0.993700000000     0.875540000000     0.0361669  
C79      C      0.380690000000     0.041850000000     0.881830000000    -0.0803535  
C80      C      0.335360000000     0.062780000000     0.882280000000     0.070714   
C81      C      0.299600000000     0.989620000000     0.870910000000     0.070563   
C82      C      0.344550000000     0.967740000000     0.869850000000    -0.0800594  
C83      C      0.880320000000     0.923260000000     0.878420000000    -0.0807296  
C84      C      0.885460000000     0.969870000000     0.886980000000     0.036245   
C85      C      0.844140000000     0.994350000000     0.894180000000    -0.0803812  
C86      C      0.799260000000     0.972430000000     0.892420000000     0.0704091  
C87      C      0.835090000000     0.902400000000     0.877060000000     0.0707198  
C88      C      0.933430000000     0.993170000000     0.887550000000     0.0361733  
C89      C      0.974940000000     0.966880000000     0.892660000000    -0.0803518  
C90      C      0.019840000000     0.988930000000     0.891780000000     0.0704542  
C91      C      0.983700000000     0.062620000000     0.881520000000     0.0705888  
C92      C      0.938400000000     0.041720000000     0.882090000000    -0.080642   
C93      C      0.152370000000     0.256720000000     0.224350000000    -0.0809793  
C94      C      0.122420000000     0.247480000000     0.243450000000     0.0365224  
C95      C      0.076860000000     0.228680000000     0.239230000000    -0.0811508  
C96      C      0.061270000000     0.221810000000     0.216380000000     0.0712935  
C97      C      0.135700000000     0.249030000000     0.201640000000     0.0709188  
C98      C      0.136330000000     0.261710000000     0.267460000000     0.0364295  
C99      C      0.124850000000     0.233100000000     0.286760000000    -0.0809457  
C100     C      0.132260000000     0.250430000000     0.309370000000     0.0708055  
C101     C      0.163690000000     0.322750000000     0.294180000000     0.0711281  
C102     C      0.157170000000     0.306450000000     0.271420000000    -0.0810484  
C103     C      0.649250000000     0.654570000000     0.267810000000    -0.0809755  
C104     C      0.669560000000     0.699450000000     0.263590000000     0.0363735  
C105     C      0.679750000000     0.729060000000     0.282710000000    -0.0808748  
C106     C      0.671710000000     0.712560000000     0.305410000000     0.0708794  
C107     C      0.642040000000     0.639130000000     0.290660000000     0.0710702  
C108     C      0.684350000000     0.712850000000     0.239580000000     0.0365666  
C109     C      0.729720000000     0.732390000000     0.235680000000    -0.0811916  
C110     C      0.746290000000     0.738540000000     0.212940000000     0.0712606  
C111     C      0.673190000000     0.709130000000     0.197660000000     0.0710017  
C112     C      0.655540000000     0.702150000000     0.220240000000    -0.0810583  
C113     C      0.430660000000     0.542280000000     0.376830000000    -0.0807369  
C114     C      0.425860000000     0.494440000000     0.383720000000     0.0364311  
C115     C      0.467410000000     0.469070000000     0.389720000000    -0.080545   
C116     C      0.512110000000     0.491260000000     0.388410000000     0.0710095  
C117     C      0.475800000000     0.563500000000     0.376040000000     0.0709563  
C118     C      0.377980000000     0.471000000000     0.384130000000     0.0364012  
C119     C      0.336680000000     0.496740000000     0.390150000000    -0.0804782  
C120     C      0.291920000000     0.474510000000     0.389570000000     0.0709726  
C121     C      0.327760000000     0.401530000000     0.377910000000     0.0709594  
C122     C      0.372910000000     0.422750000000     0.378000000000    -0.0806998  
C123     C      0.872870000000     0.542830000000     0.379460000000    -0.0808642  
C124     C      0.877950000000     0.494580000000     0.373340000000     0.036481   
C125     C      0.836660000000     0.468790000000     0.367350000000    -0.0805872  
C126     C      0.791900000000     0.490990000000     0.367930000000     0.0710665  
C127     C      0.827700000000     0.564020000000     0.379530000000     0.0710374  
C128     C      0.925860000000     0.471170000000     0.373740000000     0.0364353  
C129     C      0.967360000000     0.496570000000     0.367700000000    -0.0805585  
C130     C      0.012090000000     0.474400000000     0.368980000000     0.0709803  
C131     C      0.975850000000     0.402160000000     0.381410000000     0.0709495  
C132     C      0.930700000000     0.423350000000     0.380640000000    -0.0807579  
C133     C      0.227220000000     0.229430000000     0.521120000000    -0.0810326  
C134     C      0.182210000000     0.249840000000     0.517280000000     0.0364284  
C135     C      0.153650000000     0.260890000000     0.536670000000    -0.0808852  
C136     C      0.171280000000     0.253540000000     0.559230000000     0.0708093  
C137     C      0.243800000000     0.222930000000     0.543830000000     0.0711337  
C138     C      0.167730000000     0.263890000000     0.493320000000     0.0364526  
C139     C      0.148250000000     0.309220000000     0.489270000000    -0.0810044  
C140     C      0.141520000000     0.325220000000     0.466480000000     0.0711546  
C141     C      0.170050000000     0.251580000000     0.451450000000     0.0708517  
C142     C      0.177570000000     0.234490000000     0.474090000000    -0.0809223  
C143     C      0.158710000000     0.206970000000     0.724260000000    -0.0808527  
C144     C      0.188430000000     0.217160000000     0.743340000000     0.0364116  
C145     C      0.233380000000     0.237330000000     0.739060000000    -0.0810652  
C146     C      0.248750000000     0.244410000000     0.716190000000     0.0711756  
C147     C      0.175150000000     0.214880000000     0.701530000000     0.0707708  
C148     C      0.175060000000     0.202530000000     0.767370000000     0.0365135  
C149     C      0.185890000000     0.231410000000     0.786670000000    -0.0810325  
C150     C      0.178920000000     0.213910000000     0.809280000000     0.0709797  
C151     C      0.149290000000     0.140830000000     0.794110000000     0.0711629  
C152     C      0.155420000000     0.157260000000     0.771340000000    -0.0810735  
C153     C      0.652290000000     0.709210000000     0.532840000000    -0.0808486  
C154     C      0.622750000000     0.719040000000     0.513650000000     0.0363965  
C155     C      0.577380000000     0.738370000000     0.517770000000    -0.0809853  
C156     C      0.561460000000     0.744970000000     0.540590000000     0.0711227  
C157     C      0.635280000000     0.716590000000     0.555510000000     0.0708459  
C158     C      0.636750000000     0.704710000000     0.489650000000     0.0365602  
C159     C      0.625520000000     0.733310000000     0.470320000000    -0.0809592  
C160     C      0.632810000000     0.715810000000     0.447730000000     0.0708364  
C161     C      0.663730000000     0.643360000000     0.463010000000     0.0711891  
C162     C      0.657290000000     0.659810000000     0.485750000000    -0.0811637  
C163     C      0.654360000000     0.761670000000     0.720230000000    -0.0809219  
C164     C      0.625770000000     0.750330000000     0.739560000000     0.0364314  
C165     C      0.580970000000     0.729540000000     0.735650000000    -0.0811142  
C166     C      0.564600000000     0.722930000000     0.712910000000     0.0711597  
C167     C      0.636960000000     0.754170000000     0.697640000000     0.0708388  
C168     C      0.640080000000     0.764340000000     0.763550000000     0.0365548  
C169     C      0.630880000000     0.734490000000     0.782690000000    -0.0811137  
C170     C      0.638660000000     0.751260000000     0.805370000000     0.0710755  
C171     C      0.665890000000     0.825560000000     0.790530000000     0.0711763  
C172     C      0.658930000000     0.809870000000     0.767700000000    -0.0811096  
C173     C      0.464590000000     0.513460000000     0.628990000000    -0.0807196  
C174     C      0.416300000000     0.508370000000     0.622890000000     0.0364093  
C175     C      0.390470000000     0.549650000000     0.616950000000    -0.0804862  
C176     C      0.412660000000     0.594410000000     0.617570000000     0.0710117  
C177     C      0.485770000000     0.558620000000     0.629110000000     0.0709409  
C178     C      0.392900000000     0.460480000000     0.623260000000     0.0364292  
C179     C      0.418310000000     0.419020000000     0.617180000000    -0.0805142  
C180     C      0.396150000000     0.374300000000     0.618440000000     0.0709707  
C181     C      0.323880000000     0.410460000000     0.630920000000     0.070967   
C182     C      0.345060000000     0.455590000000     0.630170000000    -0.0807236  
C183     C      0.463960000000     0.955560000000     0.626290000000    -0.0807859  
C184     C      0.416130000000     0.960490000000     0.633200000000     0.0364056  
C185     C      0.390680000000     0.919060000000     0.639290000000    -0.0804718  
C186     C      0.412800000000     0.874330000000     0.638060000000     0.0709217  
C187     C      0.485110000000     0.910420000000     0.625580000000     0.0709915  
C188     C      0.392770000000     0.008400000000     0.633550000000     0.0364702  
C189     C      0.418630000000     0.049660000000     0.639490000000    -0.0805349  
C190     C      0.396470000000     0.094430000000     0.638860000000     0.0709929  
C191     C      0.323340000000     0.058680000000     0.627320000000     0.0710115  
C192     C      0.344490000000     0.013510000000     0.627440000000    -0.0807867  
Cd1      Cd     0.527670000000     0.734570000000     0.626930000000     0.512686   
Cd2      Cd     0.281350000000     0.234570000000     0.629730000000     0.512684   
Cd3      Cd     0.651770000000     0.606140000000     0.377100000000     0.512694   
Cd4      Cd     0.151770000000     0.359460000000     0.380170000000     0.512683   
Cd5      Cd     0.660020000000     0.857140000000     0.877300000000     0.5106     
Cd6      Cd     0.159480000000     0.105360000000     0.880390000000     0.510993   
Cd7      Cd     0.030040000000     0.227970000000     0.129600000000     0.510667   
Cd8      Cd     0.782230000000     0.728490000000     0.126700000000     0.511012   
H1       H      0.986910000000     0.478860000000     0.121080000000     0.0556995  
H2       H      0.023830000000     0.400940000000     0.121370000000     0.0362478  
H3       H      0.891180000000     0.336440000000     0.141040000000     0.0356331  
H4       H      0.853350000000     0.414430000000     0.142320000000     0.0554888  
H5       H      0.824100000000     0.476920000000     0.120160000000     0.0556887  
H6       H      0.787410000000     0.555010000000     0.119710000000     0.0360568  
H7       H      0.919210000000     0.619340000000     0.140810000000     0.0356853  
H8       H      0.956670000000     0.541290000000     0.142860000000     0.0555582  
H9       H      0.824000000000     0.980250000000     0.129430000000     0.0561082  
H10      H      0.787260000000     0.902120000000     0.130180000000     0.036266   
H11      H      0.920210000000     0.836970000000     0.111430000000     0.0354896  
H12      H      0.958030000000     0.915130000000     0.109670000000     0.0557824  
H13      H      0.984380000000     0.977160000000     0.134660000000     0.0561556  
H14      H      0.021110000000     0.055140000000     0.136690000000     0.0364199  
H15      H      0.894640000000     0.119670000000     0.108930000000     0.0353287  
H16      H      0.857050000000     0.041530000000     0.105850000000     0.0557662  
H17      H      0.209510000000     0.160270000000     0.999710000000     0.0552569  
H18      H      0.218500000000     0.133790000000     0.959860000000     0.0349943  
H19      H      0.097900000000     0.217570000000     0.939220000000     0.0356101  
H20      H      0.084790000000     0.241560000000     0.979110000000     0.0555205  
H21      H      0.100100000000     0.281080000000     0.012440000000     0.0552669  
H22      H      0.071650000000     0.290070000000     0.051980000000     0.0350153  
H23      H      0.140510000000     0.159830000000     0.071720000000     0.0354463  
H24      H      0.166060000000     0.147030000000     0.032050000000     0.0554648  
H25      H      0.741570000000     0.721930000000     0.974980000000     0.0554812  
H26      H      0.728780000000     0.747320000000     0.935280000000     0.0354233  
H27      H      0.597750000000     0.815020000000     0.954830000000     0.0350524  
H28      H      0.606780000000     0.786710000000     0.994400000000     0.0552393  
H29      H      0.646090000000     0.802420000000     0.027770000000     0.0555108  
H30      H      0.669960000000     0.789490000000     0.067700000000     0.0356025  
H31      H      0.754710000000     0.669520000000     0.047180000000     0.0350112  
H32      H      0.728400000000     0.678330000000     0.007280000000     0.055225   
H33      H      0.409120000000     0.900620000000     0.886170000000     0.0557256  
H34      H      0.487040000000     0.863630000000     0.885800000000     0.0362559  
H35      H      0.551590000000     0.996020000000     0.865860000000     0.0356044  
H36      H      0.473590000000     0.033920000000     0.864660000000     0.0555377  
H37      H      0.411200000000     0.063340000000     0.886850000000     0.0556591  
H38      H      0.333080000000     0.100070000000     0.887330000000     0.0360768  
H39      H      0.268540000000     0.968270000000     0.866470000000     0.0357084  
H40      H      0.346590000000     0.930750000000     0.864410000000     0.0555598  
H41      H      0.846330000000     0.030190000000     0.901220000000     0.0557838  
H42      H      0.768190000000     0.992540000000     0.898070000000     0.03532    
H43      H      0.832930000000     0.866370000000     0.870150000000     0.036381   
H44      H      0.910910000000     0.903160000000     0.872260000000     0.056195   
H45      H      0.972890000000     0.929450000000     0.897360000000     0.0558022  
H46      H      0.051060000000     0.967350000000     0.895660000000     0.0354993  
H47      H      0.985760000000     0.100190000000     0.876960000000     0.0362614  
H48      H      0.907630000000     0.063390000000     0.877660000000     0.0561338  
H49      H      0.052390000000     0.221440000000     0.253450000000     0.0567852  
H50      H      0.025190000000     0.208500000000     0.213910000000     0.0358214  
H51      H      0.159410000000     0.257610000000     0.187280000000     0.0354641  
H52      H      0.188090000000     0.270780000000     0.226890000000     0.0563285  
H53      H      0.109210000000     0.198010000000     0.284430000000     0.0564048  
H54      H      0.121830000000     0.227860000000     0.323880000000     0.0357302  
H55      H      0.178570000000     0.358260000000     0.296420000000     0.0358774  
H56      H      0.166240000000     0.329890000000     0.257040000000     0.0567008  
H57      H      0.694920000000     0.764310000000     0.280160000000     0.0563382  
H58      H      0.681200000000     0.735920000000     0.319780000000     0.0357416  
H59      H      0.627650000000     0.603490000000     0.293120000000     0.0358854  
H60      H      0.641160000000     0.630370000000     0.253590000000     0.0566734  
H61      H      0.753350000000     0.740770000000     0.250080000000     0.0567955  
H62      H      0.782220000000     0.752470000000     0.210750000000     0.0357989  
H63      H      0.650370000000     0.699400000000     0.183110000000     0.0355417  
H64      H      0.619990000000     0.687500000000     0.222530000000     0.0563436  
H65      H      0.465570000000     0.432320000000     0.395570000000     0.0558357  
H66      H      0.543330000000     0.470370000000     0.393120000000     0.0358702  
H67      H      0.477810000000     0.600510000000     0.370500000000     0.035715   
H68      H      0.399900000000     0.563200000000     0.371600000000     0.0560069  
H69      H      0.338740000000     0.533830000000     0.395450000000     0.055829   
H70      H      0.260880000000     0.495700000000     0.394230000000     0.0358777  
H71      H      0.325540000000     0.364210000000     0.372910000000     0.0357209  
H72      H      0.403470000000     0.401500000000     0.372790000000     0.0559609  
H73      H      0.838750000000     0.431690000000     0.362070000000     0.0558449  
H74      H      0.760870000000     0.469770000000     0.363280000000     0.035831   
H75      H      0.825470000000     0.601360000000     0.384510000000     0.0357133  
H76      H      0.903410000000     0.564100000000     0.384640000000     0.0560265  
H77      H      0.965490000000     0.533310000000     0.361840000000     0.0558215  
H78      H      0.043280000000     0.495300000000     0.364250000000     0.0358543  
H79      H      0.977890000000     0.365160000000     0.386960000000     0.0357025  
H80      H      0.899970000000     0.402420000000     0.385910000000     0.0559916  
H81      H      0.118360000000     0.276180000000     0.534430000000     0.0563062  
H82      H      0.148740000000     0.263660000000     0.573810000000     0.0357245  
H83      H      0.279490000000     0.208400000000     0.545970000000     0.0359095  
H84      H      0.250660000000     0.220710000000     0.506690000000     0.0567369  
H85      H      0.140480000000     0.333280000000     0.503590000000     0.0567059  
H86      H      0.127770000000     0.361160000000     0.464160000000     0.0358828  
H87      H      0.179250000000     0.228340000000     0.436990000000     0.035752   
H88      H      0.192090000000     0.198930000000     0.476490000000     0.0563104  
H89      H      0.257650000000     0.245420000000     0.753250000000     0.0567121  
H90      H      0.284440000000     0.258710000000     0.713690000000     0.0358651  
H91      H      0.151710000000     0.205410000000     0.687190000000     0.0357609  
H92      H      0.123420000000     0.191900000000     0.726840000000     0.0563533  
H93      H      0.200620000000     0.266890000000     0.784330000000     0.0563503  
H94      H      0.188750000000     0.236770000000     0.823790000000     0.0355296  
H95      H      0.135280000000     0.104970000000     0.796360000000     0.0358401  
H96      H      0.146940000000     0.133580000000     0.756970000000     0.056756   
H97      H      0.553210000000     0.746130000000     0.503490000000     0.0566925  
H98      H      0.525470000000     0.758610000000     0.542960000000     0.0358974  
H99      H      0.658620000000     0.707400000000     0.569940000000     0.0357616  
H100     H      0.687900000000     0.694790000000     0.530380000000     0.056268   
H101     H      0.610120000000     0.768530000000     0.472610000000     0.0563071  
H102     H      0.622550000000     0.738380000000     0.433190000000     0.035698   
H103     H      0.678360000000     0.607740000000     0.460820000000     0.035882   
H104     H      0.666150000000     0.636350000000     0.500140000000     0.0567783  
H105     H      0.557550000000     0.720570000000     0.750050000000     0.0567345  
H106     H      0.529040000000     0.708100000000     0.710710000000     0.0358659  
H107     H      0.659520000000     0.764500000000     0.683100000000     0.0357355  
H108     H      0.689500000000     0.777280000000     0.722530000000     0.0563774  
H109     H      0.616780000000     0.698800000000     0.780190000000     0.0563773  
H110     H      0.630100000000     0.727620000000     0.819770000000     0.0354392  
H111     H      0.679240000000     0.861620000000     0.792950000000     0.0358356  
H112     H      0.666150000000     0.834270000000     0.753450000000     0.0567591  
H113     H      0.353340000000     0.547570000000     0.611680000000     0.0558271  
H114     H      0.391400000000     0.625430000000     0.612960000000     0.0358766  
H115     H      0.523130000000     0.560850000000     0.634070000000     0.0357241  
H116     H      0.485910000000     0.482920000000     0.634130000000     0.0559805  
H117     H      0.455060000000     0.420920000000     0.611310000000     0.055832   
H118     H      0.417060000000     0.343150000000     0.613680000000     0.0358653  
H119     H      0.286860000000     0.408390000000     0.636490000000     0.0357238  
H120     H      0.324120000000     0.486290000000     0.635470000000     0.0559861  
H121     H      0.353920000000     0.921000000000     0.645160000000     0.0557948  
H122     H      0.391870000000     0.843190000000     0.642830000000     0.0358651  
H123     H      0.522130000000     0.908310000000     0.620020000000     0.0357068  
H124     H      0.484930000000     0.986230000000     0.620990000000     0.0559903  
H125     H      0.455760000000     0.047560000000     0.644750000000     0.0558382  
H126     H      0.417740000000     0.125440000000     0.643470000000     0.0358586  
H127     H      0.285980000000     0.060930000000     0.622360000000     0.0357139  
H128     H      0.323160000000     0.982990000000     0.622290000000     0.0559914  
N1       N      0.960170000000     0.363010000000     0.131160000000    -0.177642   
N2       N      0.850700000000     0.592870000000     0.130120000000    -0.177739   
N3       N      0.851170000000     0.863820000000     0.121050000000    -0.178057   
N4       N      0.960440000000     0.093130000000     0.123080000000    -0.17809    
N5       N      0.158180000000     0.172900000000     0.946820000000    -0.178876   
N6       N      0.103090000000     0.225030000000     0.064510000000    -0.178935   
N7       N      0.663170000000     0.784150000000     0.942390000000    -0.178923   
N8       N      0.715110000000     0.729540000000     0.060160000000    -0.178881   
N9       N      0.525000000000     0.927160000000     0.875870000000    -0.177648   
N10      N      0.295110000000     0.036790000000     0.877040000000    -0.177707   
N11      N      0.794840000000     0.926880000000     0.883840000000    -0.178066   
N12      N      0.024140000000     0.036340000000     0.886060000000    -0.17806    
N13      N      0.089980000000     0.233100000000     0.197750000000    -0.178901   
N14      N      0.150050000000     0.295540000000     0.312970000000    -0.178543   
N15      N      0.654520000000     0.667330000000     0.309300000000    -0.178569   
N16      N      0.718760000000     0.725790000000     0.194110000000    -0.178882   
N17      N      0.516200000000     0.538080000000     0.381610000000    -0.178443   
N18      N      0.287570000000     0.427320000000     0.383450000000    -0.178403   
N19      N      0.787520000000     0.538190000000     0.374020000000    -0.178507   
N20      N      0.016220000000     0.427590000000     0.375800000000    -0.178475   
N21      N      0.216630000000     0.236210000000     0.562700000000    -0.178529   
N22      N      0.153680000000     0.297180000000     0.447740000000    -0.178502   
N23      N      0.220440000000     0.231950000000     0.697590000000    -0.178532   
N24      N      0.162160000000     0.168420000000     0.812900000000    -0.178882   
N25      N      0.589640000000     0.732830000000     0.559290000000    -0.178573   
N26      N      0.650270000000     0.670560000000     0.444190000000    -0.178501   
N27      N      0.591800000000     0.736440000000     0.694090000000    -0.178534   
N28      N      0.654630000000     0.796950000000     0.809210000000    -0.178989   
N29      N      0.459890000000     0.598790000000     0.623650000000    -0.178438   
N30      N      0.349330000000     0.370130000000     0.625270000000    -0.178483   
N31      N      0.459630000000     0.870120000000     0.631240000000    -0.178462   
N32      N      0.349230000000     0.098830000000     0.632790000000    -0.178485   
O1       O      0.458010000000     0.681270000000     0.621120000000    -0.243523   
O2       O      0.596330000000     0.745720000000     0.654000000000    -0.24453    
O3       O      0.458080000000     0.787600000000     0.633550000000    -0.243733   
O4       O      0.527840000000     0.745800000000     0.584950000000    -0.252262   
O5       O      0.595620000000     0.724400000000     0.599370000000    -0.244635   
O6       O      0.524930000000     0.821620000000     0.625080000000    -0.251274   
O7       O      0.525410000000     0.647500000000     0.628780000000    -0.25122    
O8       O      0.529580000000     0.722320000000     0.668820000000    -0.252112   
O9       O      0.350860000000     0.287610000000     0.623020000000    -0.243652   
O10      O      0.213870000000     0.223750000000     0.657510000000    -0.2445     
O11      O      0.351110000000     0.181310000000     0.635370000000    -0.243523   
O12      O      0.279120000000     0.222440000000     0.587850000000    -0.252127   
O13      O      0.212380000000     0.245530000000     0.602800000000    -0.244442   
O14      O      0.283700000000     0.147540000000     0.627740000000    -0.251166   
O15      O      0.284030000000     0.321660000000     0.631510000000    -0.251165   
O16      O      0.281620000000     0.245920000000     0.671700000000    -0.252125   
O17      O      0.705000000000     0.536410000000     0.371380000000    -0.243469   
O18      O      0.640740000000     0.674950000000     0.404100000000    -0.24446    
O19      O      0.598780000000     0.536610000000     0.383770000000    -0.243651   
O20      O      0.640390000000     0.606100000000     0.335120000000    -0.252286   
O21      O      0.662680000000     0.673700000000     0.349380000000    -0.244653   
O22      O      0.564620000000     0.603410000000     0.375380000000    -0.251264   
O23      O      0.738840000000     0.603720000000     0.379090000000    -0.251155   
O24      O      0.664110000000     0.608250000000     0.418950000000    -0.252115   
O25      O      0.205040000000     0.429100000000     0.386060000000    -0.243432   
O26      O      0.140570000000     0.290930000000     0.353050000000    -0.244448   
O27      O      0.098790000000     0.429060000000     0.373560000000    -0.243722   
O28      O      0.140520000000     0.359060000000     0.422150000000    -0.252118   
O29      O      0.162060000000     0.291430000000     0.407640000000    -0.244508   
O30      O      0.064650000000     0.362270000000     0.381980000000    -0.251293   
O31      O      0.238870000000     0.361810000000     0.378280000000    -0.251072   
O32      O      0.164170000000     0.357630000000     0.338290000000    -0.252143   
O33      O      0.607750000000     0.928700000000     0.873390000000    -0.242378   
O34      O      0.688150000000     0.793630000000     0.904240000000    -0.246172   
O35      O      0.712150000000     0.926900000000     0.887190000000    -0.244854   
O36      O      0.668410000000     0.858190000000     0.835080000000    -0.252976   
O37      O      0.648240000000     0.790020000000     0.849330000000    -0.246931   
O38      O      0.746520000000     0.863130000000     0.874620000000    -0.249383   
O39      O      0.573260000000     0.860930000000     0.879470000000    -0.246584   
O40      O      0.631460000000     0.838680000000     0.916700000000    -0.249021   
O41      O      0.212340000000     0.034740000000     0.875200000000    -0.242391   
O42      O      0.135880000000     0.169370000000     0.908030000000    -0.245331   
O43      O      0.106990000000     0.034680000000     0.887760000000    -0.244244   
O44      O      0.148510000000     0.106410000000     0.838330000000    -0.25331    
O45      O      0.170950000000     0.173510000000     0.852990000000    -0.246311   
O46      O      0.072610000000     0.101450000000     0.879710000000    -0.249825   
O47      O      0.246480000000     0.102490000000     0.881780000000    -0.24751    
O48      O      0.185700000000     0.116950000000     0.920710000000    -0.24997    
O49      O      0.958500000000     0.280290000000     0.133500000000    -0.24244    
O50      O      0.093840000000     0.200250000000     0.102700000000    -0.246292   
O51      O      0.960270000000     0.175770000000     0.119750000000    -0.244854   
O52      O      0.028820000000     0.219450000000     0.171800000000    -0.253024   
O53      O      0.097090000000     0.239630000000     0.157630000000    -0.24679    
O54      O      0.024210000000     0.141500000000     0.132210000000    -0.249431   
O55      O      0.026390000000     0.314710000000     0.127570000000    -0.246668   
O56      O      0.048200000000     0.256360000000     0.090140000000    -0.249157   
O57      O      0.852810000000     0.675600000000     0.132000000000    -0.242382   
O58      O      0.718240000000     0.751810000000     0.098960000000    -0.245338   
O59      O      0.852910000000     0.781010000000     0.119380000000    -0.244299   
O60      O      0.780970000000     0.739360000000     0.168760000000    -0.253302   
O61      O      0.713860000000     0.717110000000     0.154010000000    -0.246327   
O62      O      0.786060000000     0.815320000000     0.127400000000    -0.249892   
O63      O      0.785040000000     0.641540000000     0.125310000000    -0.247591   
O64      O      0.771070000000     0.702340000000     0.086350000000    -0.250046   


