data_structure

_audit_creation_method RASPA-1.0
_audit_creation_date 2023-6-5
_audit_author_name 'Poobodin Mano'

_cell_length_a    44.5377
_cell_length_b    44.938
_cell_length_c    24.6699
_cell_angle_alpha 90.0364
_cell_angle_beta  89.8902
_cell_angle_gamma 90.0001
_cell_volume      49375.1

_symmetry_cell_setting          triclinic
_symmetry_space_group_name_Hall 'P 1'
_symmetry_space_group_name_H-M  'P 1'
_symmetry_Int_Tables_number     1

_symmetry_equiv_pos_as_xyz 'x,y,z'

loop_
_atom_site_label
_atom_site_type_symbol
_atom_site_fract_x
_atom_site_fract_y
_atom_site_fract_z
_atom_site_charge
C1       C      0.308170000000     0.304200000000     0.071470000000     0.34832    
C2       C      0.403190000000     0.319460000000     0.972820000000     0.345701   
C3       C      0.313100000000     0.297330000000     0.888260000000     0.346956   
C4       C      0.330780000000     0.393350000000     0.984610000000     0.348421   
C5       C      0.300090000000     0.705490000000     0.079000000000     0.347667   
C6       C      0.323070000000     0.612190000000     0.991290000000     0.346025   
C7       C      0.296630000000     0.704580000000     0.897900000000     0.346279   
C8       C      0.392560000000     0.683270000000     0.977320000000     0.345566   
C9       C      0.623810000000     0.322140000000     0.966180000000     0.34888    
C10      C      0.716290000000     0.303850000000     0.864150000000     0.346234   
C11      C      0.696860000000     0.394180000000     0.957940000000     0.348039   
C12      C      0.713320000000     0.298900000000     0.050030000000     0.346986   
C13      C      0.686560000000     0.612740000000     0.960980000000     0.349377   
C14      C      0.707570000000     0.704910000000     0.870590000000     0.347499   
C15      C      0.613430000000     0.683180000000     0.961150000000     0.348186   
C16      C      0.705440000000     0.703060000000     0.056720000000     0.34706    
C17      C      0.811060000000     0.204100000000     0.551880000000     0.346559   
C18      C      0.830190000000     0.113470000000     0.454030000000     0.349365   
C19      C      0.809870000000     0.203950000000     0.364770000000     0.348849   
C20      C      0.902860000000     0.188630000000     0.460770000000     0.346747   
C21      C      0.799850000000     0.801200000000     0.552310000000     0.346123   
C22      C      0.893100000000     0.826680000000     0.463630000000     0.345689   
C23      C      0.799410000000     0.801250000000     0.371030000000     0.347492   
C24      C      0.821490000000     0.894860000000     0.461460000000     0.345192   
C25      C      0.206480000000     0.800980000000     0.397060000000     0.34694    
C26      C      0.113990000000     0.826740000000     0.485390000000     0.348636   
C27      C      0.204620000000     0.802970000000     0.582420000000     0.349941   
C28      C      0.189720000000     0.894870000000     0.488000000000     0.346903   
C29      C      0.213990000000     0.207320000000     0.387360000000     0.346667   
C30      C      0.195790000000     0.113630000000     0.484290000000     0.345887   
C31      C      0.217780000000     0.201630000000     0.573280000000     0.34734    
C32      C      0.123350000000     0.186330000000     0.468760000000     0.348456   
C33      C      0.207950000000     0.940180000000     0.530480000000     0.086653   
C34      C      0.182910000000     0.941500000000     0.445490000000     0.0711958  
C35      C      0.210220000000     0.971330000000     0.530000000000    -0.0839706  
C36      C      0.193580000000     0.036990000000     0.534410000000    -0.0798533  
C37      C      0.184970000000     0.972440000000     0.444130000000    -0.0812959  
C38      C      0.199560000000     0.020860000000     0.486960000000     0.0364852  
C39      C      0.198460000000     0.987780000000     0.486880000000     0.0392872  
C40      C      0.193000000000     0.068070000000     0.533060000000     0.0717529  
C41      C      0.204880000000     0.067700000000     0.439340000000     0.0719459  
C42      C      0.205620000000     0.036640000000     0.439220000000    -0.0800999  
C43      C      0.221040000000     0.925080000000     0.576570000000     0.0544933  
C44      C      0.941680000000     0.828070000000     0.418810000000     0.0867238  
C45      C      0.937870000000     0.821520000000     0.514190000000     0.0713792  
C46      C      0.973090000000     0.827330000000     0.422550000000    -0.0837587  
C47      C      0.038150000000     0.809350000000     0.437980000000    -0.0797345  
C48      C      0.969070000000     0.820670000000     0.518850000000    -0.0808274  
C49      C      0.020420000000     0.823640000000     0.477130000000     0.0368701  
C50      C      0.987110000000     0.823730000000     0.472810000000     0.0394451  
C51      C      0.069420000000     0.810370000000     0.441670000000     0.0728287  
C52      C      0.066180000000     0.838870000000     0.522370000000     0.0725111  
C53      C      0.034860000000     0.838350000000     0.519890000000    -0.0798616  
C54      C      0.929330000000     0.832000000000     0.365020000000     0.054874   
C55      C      0.815620000000     0.942120000000     0.508050000000     0.0868019  
C56      C      0.822510000000     0.940060000000     0.412520000000     0.0712917  
C57      C      0.815650000000     0.973320000000     0.505940000000    -0.0838066  
C58      C      0.801900000000     0.038820000000     0.484780000000    -0.0798816  
C59      C      0.822750000000     0.971030000000     0.409500000000    -0.081182   
C60      C      0.821530000000     0.021020000000     0.454400000000     0.0370158  
C61      C      0.819650000000     0.988050000000     0.456550000000     0.0393568  
C62      C      0.804810000000     0.069780000000     0.483600000000     0.0731565  
C63      C      0.845970000000     0.065940000000     0.422870000000     0.0726632  
C64      C      0.843590000000     0.034970000000     0.422860000000    -0.0801473  
C65      C      0.811110000000     0.928870000000     0.560930000000     0.0551106  
C66      C      0.949270000000     0.196770000000     0.510110000000     0.0869312  
C67      C      0.949310000000     0.190580000000     0.414390000000     0.0714686  
C68      C      0.980740000000     0.198030000000     0.509870000000    -0.0836668  
C69      C      0.046920000000     0.213010000000     0.494350000000    -0.0798727  
C70      C      0.980590000000     0.191740000000     0.413190000000    -0.0813259  
C71      C      0.030080000000     0.193970000000     0.461220000000     0.0366932  
C72      C      0.996720000000     0.194980000000     0.461320000000     0.0394224  
C73      C      0.078190000000     0.210540000000     0.495670000000     0.0722982  
C74      C      0.076610000000     0.171200000000     0.431630000000     0.0720165  
C75      C      0.045370000000     0.173110000000     0.429210000000    -0.0800676  
C76      C      0.934690000000     0.200210000000     0.562270000000     0.0555889  
C77      C      0.752230000000     0.717270000000     0.818610000000     0.0870455  
C78      C      0.703830000000     0.732800000000     0.789620000000     0.0714889  
C79      C      0.765140000000     0.730860000000     0.773020000000    -0.0838077  
C80      C      0.784360000000     0.746350000000     0.658420000000    -0.0796338  
C81      C      0.716180000000     0.746430000000     0.743960000000    -0.0810638  
C82      C      0.760700000000     0.759970000000     0.686600000000     0.0367994  
C83      C      0.747150000000     0.745550000000     0.735080000000     0.039616   
C84      C      0.797100000000     0.760390000000     0.613420000000     0.0724477  
C85      C      0.763460000000     0.800960000000     0.622960000000     0.0726996  
C86      C      0.750240000000     0.787570000000     0.668180000000    -0.0792488  
C87      C      0.772750000000     0.702900000000     0.855780000000     0.0550762  
C88      C      0.733480000000     0.699190000000     0.140750000000     0.087461   
C89      C      0.716570000000     0.746060000000     0.108250000000     0.0719381  
C90      C      0.746620000000     0.713210000000     0.185620000000    -0.0837138  
C91      C      0.787260000000     0.749970000000     0.257850000000    -0.079418   
C92      C      0.729490000000     0.760480000000     0.152530000000    -0.0808024  
C93      C      0.759080000000     0.759130000000     0.238970000000     0.0369204  
C94      C      0.744840000000     0.744100000000     0.191820000000     0.0397461  
C95      C      0.800360000000     0.764260000000     0.302150000000     0.0729647  
C96      C      0.758490000000     0.796600000000     0.309730000000     0.0722603  
C97      C      0.744720000000     0.782770000000     0.265530000000    -0.0796644  
C98      C      0.736350000000     0.667110000000     0.138230000000     0.0559781  
C99      C      0.802890000000     0.207310000000     0.649080000000     0.0876596  
C100     C      0.779700000000     0.241490000000     0.588690000000     0.0716812  
C101     C      0.789370000000     0.221780000000     0.693210000000    -0.0835516  
C102     C      0.772730000000     0.267110000000     0.779410000000    -0.0799167  
C103     C      0.766000000000     0.256190000000     0.631950000000    -0.0810156  
C104     C      0.756600000000     0.262040000000     0.731600000000     0.0368716  
C105     C      0.770810000000     0.246470000000     0.684970000000     0.0396617  
C106     C      0.758960000000     0.281380000000     0.823160000000     0.0723038  
C107     C      0.713680000000     0.286030000000     0.773470000000     0.0722289  
C108     C      0.726770000000     0.271850000000     0.728890000000    -0.079825   
C109     C      0.821760000000     0.182020000000     0.661740000000     0.0578724  
C110     C      0.709870000000     0.264460000000     0.125670000000     0.0871982  
C111     C      0.755140000000     0.290510000000     0.106720000000     0.0726113  
C112     C      0.723550000000     0.250820000000     0.170430000000    -0.0835026  
C113     C      0.762330000000     0.213370000000     0.245060000000    -0.0799801  
C114     C      0.769240000000     0.277070000000     0.150710000000    -0.0806856  
C115     C      0.768140000000     0.243080000000     0.231220000000     0.0369962  
C116     C      0.753470000000     0.257090000000     0.183460000000     0.039596   
C117     C      0.776400000000     0.200650000000     0.290000000000     0.0723964  
C118     C      0.802040000000     0.245830000000     0.307810000000     0.0728078  
C119     C      0.788220000000     0.259310000000     0.263440000000    -0.0800084  
C120     C      0.678730000000     0.256930000000     0.115900000000     0.0542537  
C121     C      0.707220000000     0.440500000000     0.004880000000     0.0872614  
C122     C      0.692520000000     0.440260000000     0.912290000000     0.071222   
C123     C      0.706830000000     0.471690000000     0.004960000000    -0.0840714  
C124     C      0.683290000000     0.534890000000     0.003820000000    -0.0797125  
C125     C      0.692030000000     0.471300000000     0.911410000000    -0.0810745  
C126     C      0.696260000000     0.520380000000     0.959300000000     0.0371997  
C127     C      0.698680000000     0.487390000000     0.958340000000     0.0395829  
C128     C      0.680400000000     0.565810000000     0.003800000000     0.0739354  
C129     C      0.703110000000     0.568540000000     0.916930000000     0.0732108  
C130     C      0.706290000000     0.537610000000     0.915550000000    -0.0796237  
C131     C      0.716470000000     0.426270000000     0.054790000000     0.0553401  
C132     C      0.259500000000     0.704090000000     0.825900000000     0.0875312  
C133     C      0.291390000000     0.745870000000     0.839340000000     0.0724273  
C134     C      0.246220000000     0.718350000000     0.781420000000    -0.0834527  
C135     C      0.211270000000     0.760310000000     0.708230000000    -0.0795103  
C136     C      0.278520000000     0.760440000000     0.795240000000    -0.0806488  
C137     C      0.242250000000     0.761690000000     0.717740000000     0.0375702  
C138     C      0.255770000000     0.746680000000     0.765510000000     0.0400273  
C139     C      0.199030000000     0.774320000000     0.662820000000     0.073903   
C140     C      0.247290000000     0.791100000000     0.635940000000     0.074257   
C141     C      0.260260000000     0.777390000000     0.680940000000    -0.0792877  
C142     C      0.248180000000     0.674760000000     0.839070000000     0.0560731  
C143     C      0.217190000000     0.756240000000     0.345220000000     0.0871156  
C144     C      0.235170000000     0.803470000000     0.316400000000     0.071458   
C145     C      0.230510000000     0.742870000000     0.299770000000    -0.0837958  
C146     C      0.245360000000     0.723480000000     0.184980000000    -0.0794567  
C147     C      0.248610000000     0.790640000000     0.270920000000    -0.0810505  
C148     C      0.260330000000     0.745970000000     0.213560000000     0.037056   
C149     C      0.246310000000     0.760020000000     0.262010000000     0.0396415  
C150     C      0.258950000000     0.710270000000     0.139930000000     0.0733422  
C151     C      0.301770000000     0.741080000000     0.150350000000     0.0726983  
C152     C      0.288840000000     0.754780000000     0.195580000000    -0.0796461  
C153     C      0.201510000000     0.736560000000     0.382120000000     0.0552606  
C154     C      0.437780000000     0.690670000000     0.923790000000     0.0865454  
C155     C      0.440350000000     0.682580000000     0.018900000000     0.071042   
C156     C      0.469230000000     0.691690000000     0.921130000000    -0.0839852  
C157     C      0.534760000000     0.673040000000     0.922760000000    -0.0800874  
C158     C      0.471640000000     0.683550000000     0.017210000000    -0.0809475  
C159     C      0.519840000000     0.687670000000     0.965130000000     0.0365957  
C160     C      0.486480000000     0.687860000000     0.967920000000     0.0391623  
C161     C      0.566090000000     0.672090000000     0.921700000000     0.0721671  
C162     C      0.568420000000     0.700180000000     0.002980000000     0.0720517  
C163     C      0.537100000000     0.701520000000     0.005340000000    -0.0799705  
C164     C      0.421890000000     0.695220000000     0.873320000000     0.0546112  
C165     C      0.286380000000     0.254930000000     0.850900000000     0.087598   
C166     C      0.301580000000     0.295230000000     0.794780000000     0.072875   
C167     C      0.273210000000     0.240910000000     0.806030000000    -0.0836828  
C168     C      0.231080000000     0.227310000000     0.712020000000    -0.080005   
C169     C      0.288840000000     0.281580000000     0.749540000000    -0.0805032  
C170     C      0.259760000000     0.239860000000     0.707440000000     0.0369531  
C171     C      0.274260000000     0.254230000000     0.754870000000     0.0397136  
C172     C      0.217430000000     0.214490000000     0.666770000000     0.0725707  
C173     C      0.260050000000     0.225630000000     0.612700000000     0.0720617  
C174     C      0.274270000000     0.238850000000     0.657050000000    -0.080027   
C175     C      0.283920000000     0.239490000000     0.902230000000     0.0551933  
C176     C      0.264100000000     0.297520000000     0.128410000000     0.0878783  
C177     C      0.309960000000     0.272770000000     0.148100000000     0.0729586  
C178     C      0.250590000000     0.283890000000     0.173460000000    -0.0833614  
C179     C      0.232050000000     0.264490000000     0.286660000000    -0.0797472  
C180     C      0.297090000000     0.259180000000     0.193240000000    -0.0808071  
C181     C      0.252880000000     0.249510000000     0.253810000000     0.0369327  
C182     C      0.267030000000     0.264470000000     0.206350000000     0.0398988  
C183     C      0.219130000000     0.250010000000     0.331080000000     0.0721343  
C184     C      0.247010000000     0.206340000000     0.311680000000     0.07247    
C185     C      0.260170000000     0.220030000000     0.266790000000    -0.0798586  
C186     C      0.245170000000     0.316890000000     0.096370000000     0.0552904  
C187     C      0.449680000000     0.313110000000     0.922460000000     0.0866817  
C188     C      0.449680000000     0.317010000000     0.018570000000     0.0715533  
C189     C      0.481170000000     0.312060000000     0.922410000000    -0.0838103  
C190     C      0.547400000000     0.296430000000     0.937650000000    -0.0797287  
C191     C      0.480950000000     0.316110000000     0.019490000000    -0.0812739  
C192     C      0.530430000000     0.315170000000     0.971230000000     0.037124   
C193     C      0.497100000000     0.314080000000     0.971070000000     0.0394053  
C194     C      0.578700000000     0.298680000000     0.937110000000     0.0734665  
C195     C      0.576820000000     0.337400000000     0.002390000000     0.0733467  
C196     C      0.545560000000     0.335640000000     0.004160000000    -0.0799215  
C197     C      0.435100000000     0.310740000000     0.870210000000     0.0540222  
C198     C      0.320640000000     0.565640000000     0.041050000000     0.0872053  
C199     C      0.321530000000     0.566210000000     0.944690000000     0.0720901  
C200     C      0.320660000000     0.534430000000     0.040450000000    -0.0836627  
C201     C      0.341840000000     0.470690000000     0.026470000000    -0.0800363  
C202     C      0.321450000000     0.535180000000     0.943140000000    -0.0803608  
C203     C      0.323030000000     0.485860000000     0.990430000000     0.0371889  
C204     C      0.321410000000     0.518900000000     0.991320000000     0.0396193  
C205     C      0.343950000000     0.439730000000     0.024180000000     0.0726822  
C206     C      0.308930000000     0.438220000000     0.951950000000     0.0730799  
C207     C      0.306370000000     0.469230000000     0.952980000000    -0.0794335  
C208     C      0.319590000000     0.579680000000     0.093870000000     0.0552296  
Cd1      Cd     0.338870000000     0.329390000000     0.978850000000     0.513159   
Cd2      Cd     0.327980000000     0.676540000000     0.987020000000     0.513606   
Cd3      Cd     0.687980000000     0.330180000000     0.958350000000     0.51225    
Cd4      Cd     0.678070000000     0.676510000000     0.961780000000     0.512799   
Cd5      Cd     0.838700000000     0.177280000000     0.457390000000     0.512336   
Cd6      Cd     0.828100000000     0.830680000000     0.461520000000     0.512628   
Cd7      Cd     0.178790000000     0.831260000000     0.488220000000     0.512911   
Cd8      Cd     0.187500000000     0.177470000000     0.479280000000     0.51032    
H1       H      0.187770000000     0.079710000000     0.570410000000     0.0367835  
H2       H      0.171840000000     0.930840000000     0.411510000000     0.037582   
H3       H      0.210850000000     0.025080000000     0.401830000000     0.0574943  
H4       H      0.175300000000     0.984280000000     0.410150000000     0.0578404  
H5       H      0.188510000000     0.025720000000     0.572120000000     0.0582852  
H6       H      0.221340000000     0.982720000000     0.563170000000     0.0612952  
H7       H      0.209370000000     0.079040000000     0.401390000000     0.037363   
H8       H      0.082300000000     0.799150000000     0.410390000000     0.0382079  
H9       H      0.925010000000     0.819090000000     0.551310000000     0.0386621  
H10      H      0.022090000000     0.849970000000     0.550730000000     0.0579235  
H11      H      0.978950000000     0.817410000000     0.558480000000     0.0584717  
H12      H      0.027960000000     0.797310000000     0.404720000000     0.0588706  
H13      H      0.986590000000     0.830140000000     0.386250000000     0.0614758  
H14      H      0.076470000000     0.850760000000     0.555790000000     0.0371844  
H15      H      0.789280000000     0.082800000000     0.507840000000     0.0380199  
H16      H      0.825320000000     0.927990000000     0.374770000000     0.0388388  
H17      H      0.859420000000     0.022040000000     0.399220000000     0.0581719  
H18      H      0.825410000000     0.981590000000     0.370320000000     0.0583768  
H19      H      0.784320000000     0.028920000000     0.509230000000     0.0588217  
H20      H      0.813240000000     0.986090000000     0.543040000000     0.0622532  
H21      H      0.863590000000     0.075830000000     0.398410000000     0.0368166  
H22      H      0.090420000000     0.225500000000     0.522170000000     0.0374864  
H23      H      0.938000000000     0.187600000000     0.375880000000     0.0378445  
H24      H      0.033250000000     0.157730000000     0.403470000000     0.0576992  
H25      H      0.992070000000     0.189880000000     0.374580000000     0.05793    
H26      H      0.036030000000     0.229730000000     0.519190000000     0.0584313  
H27      H      0.992760000000     0.200550000000     0.547810000000     0.0619674  
H28      H      0.087500000000     0.154440000000     0.406820000000     0.0362966  
H29      H      0.815380000000     0.749120000000     0.592810000000     0.0375209  
H30      H      0.679640000000     0.734060000000     0.794230000000     0.0377637  
H31      H      0.732250000000     0.799090000000     0.689060000000     0.0583301  
H32      H      0.701350000000     0.757260000000     0.715350000000     0.0579235  
H33      H      0.792870000000     0.724810000000     0.670690000000     0.0584886  
H34      H      0.789310000000     0.730340000000     0.767600000000     0.0619889  
H35      H      0.754830000000     0.822410000000     0.610270000000     0.0392397  
H36      H      0.822230000000     0.756530000000     0.315320000000     0.0389114  
H37      H      0.705110000000     0.759920000000     0.078860000000     0.0380778  
H38      H      0.722760000000     0.790350000000     0.252760000000     0.0575731  
H39      H      0.727840000000     0.784480000000     0.155370000000     0.058375   
H40      H      0.799390000000     0.732090000000     0.238100000000     0.0594503  
H41      H      0.757940000000     0.699930000000     0.216080000000     0.0617847  
H42      H      0.746610000000     0.814750000000     0.329240000000     0.0369336  
H43      H      0.772220000000     0.284810000000     0.859450000000     0.0373793  
H44      H      0.775280000000     0.250120000000     0.548440000000     0.037746   
H45      H      0.713390000000     0.268140000000     0.692890000000     0.0577326  
H46      H      0.752050000000     0.275410000000     0.623770000000     0.0580804  
H47      H      0.795980000000     0.260330000000     0.782970000000     0.0590919  
H48      H      0.793080000000     0.213540000000     0.733980000000     0.0620981  
H49      H      0.690470000000     0.293050000000     0.769940000000     0.0372895  
H50      H      0.771360000000     0.177600000000     0.299240000000     0.0365647  
H51      H      0.768540000000     0.305820000000     0.082820000000     0.0400175  
H52      H      0.793030000000     0.282470000000     0.254940000000     0.0583848  
H53      H      0.792590000000     0.282210000000     0.158560000000     0.0585384  
H54      H      0.747330000000     0.199820000000     0.220940000000     0.0580181  
H55      H      0.710630000000     0.235740000000     0.195660000000     0.0612305  
H56      H      0.817390000000     0.259210000000     0.331660000000     0.0374376  
H57      H      0.670020000000     0.576120000000     0.038900000000     0.0388969  
H58      H      0.686500000000     0.428900000000     0.875070000000     0.0372606  
H59      H      0.716740000000     0.527310000000     0.880570000000     0.0581915  
H60      H      0.685540000000     0.482570000000     0.874440000000     0.0579302  
H61      H      0.674840000000     0.522430000000     0.038180000000     0.059192   
H62      H      0.712960000000     0.483730000000     0.041440000000     0.0625674  
H63      H      0.711120000000     0.581110000000     0.882290000000     0.0378936  
H64      H      0.174960000000     0.772760000000     0.656960000000     0.0381373  
H65      H      0.309000000000     0.757610000000     0.860830000000     0.0393287  
H66      H      0.284360000000     0.778710000000     0.686340000000     0.0593795  
H67      H      0.286300000000     0.782550000000     0.784830000000     0.0592629  
H68      H      0.196460000000     0.748740000000     0.735990000000     0.0589974  
H69      H      0.228780000000     0.707070000000     0.758620000000     0.0623925  
H70      H      0.262050000000     0.802900000000     0.608320000000     0.0388765  
H71      H      0.246600000000     0.692960000000     0.118970000000     0.0390395  
H72      H      0.237540000000     0.827360000000     0.321050000000     0.0378569  
H73      H      0.301360000000     0.771830000000     0.216790000000     0.0579385  
H74      H      0.260370000000     0.804820000000     0.242440000000     0.0579273  
H75      H      0.223110000000     0.716280000000     0.196930000000     0.0592772  
H76      H      0.228850000000     0.718970000000     0.294270000000     0.0625283  
H77      H      0.323940000000     0.748410000000     0.137950000000     0.0374056  
H78      H      0.576730000000     0.660220000000     0.888550000000     0.0367778  
H79      H      0.430070000000     0.678780000000     0.058180000000     0.0386801  
H80      H      0.526500000000     0.713430000000     0.038420000000     0.0576259  
H81      H      0.484100000000     0.680220000000     0.054370000000     0.0581519  
H82      H      0.522330000000     0.661740000000     0.891150000000     0.0581918  
H83      H      0.480240000000     0.695680000000     0.882540000000     0.0613351  
H84      H      0.580950000000     0.711020000000     0.035040000000     0.036772   
H85      H      0.195100000000     0.205280000000     0.671900000000     0.0378     
H86      H      0.312400000000     0.316560000000     0.788350000000     0.0403393  
H87      H      0.296590000000     0.248020000000     0.651950000000     0.058487   
H88      H      0.289920000000     0.292760000000     0.710690000000     0.0591626  
H89      H      0.218970000000     0.227890000000     0.750130000000     0.0591067  
H90      H      0.262300000000     0.219480000000     0.810950000000     0.0618791  
H91      H      0.272000000000     0.225310000000     0.574370000000     0.0364907  
H92      H      0.203200000000     0.262390000000     0.355570000000     0.0367371  
H93      H      0.333380000000     0.267800000000     0.140010000000     0.0391534  
H94      H      0.275710000000     0.207350000000     0.242100000000     0.0582185  
H95      H      0.310890000000     0.244770000000     0.218030000000     0.0582097  
H96      H      0.226030000000     0.287420000000     0.278690000000     0.0580981  
H97      H      0.227080000000     0.288040000000     0.182180000000     0.0616074  
H98      H      0.253300000000     0.183500000000     0.320210000000     0.0376976  
H99      H      0.591050000000     0.283910000000     0.910380000000     0.0380226  
H100     H      0.438360000000     0.318990000000     0.057370000000     0.0385505  
H101     H      0.533310000000     0.350760000000     0.030290000000     0.0582293  
H102     H      0.492420000000     0.317170000000     0.058130000000     0.0587005  
H103     H      0.536580000000     0.280060000000     0.912020000000     0.0587179  
H104     H      0.493240000000     0.310450000000     0.884270000000     0.0615619  
H105     H      0.587610000000     0.353820000000     0.028020000000     0.0377114  
H106     H      0.359010000000     0.428900000000     0.052470000000     0.0369579  
H107     H      0.322040000000     0.577690000000     0.906040000000     0.0405381  
H108     H      0.291310000000     0.480070000000     0.924780000000     0.0592056  
H109     H      0.322230000000     0.524050000000     0.904200000000     0.059199   
H110     H      0.355400000000     0.482670000000     0.055620000000     0.0584818  
H111     H      0.319980000000     0.522230000000     0.078390000000     0.0619907  
H112     H      0.295750000000     0.426140000000     0.922310000000     0.0384945  
N1       N      0.193840000000     0.925270000000     0.488410000000    -0.177639   
N2       N      0.198160000000     0.083250000000     0.485700000000    -0.178173   
N3       N      0.233360000000     0.911090000000     0.619870000000    -0.083373   
N4       N      0.924020000000     0.825370000000     0.464890000000    -0.177351   
N5       N      0.083290000000     0.825220000000     0.483290000000    -0.178299   
N6       N      0.917960000000     0.835690000000     0.314500000000    -0.0824241  
N7       N      0.819610000000     0.925470000000     0.461270000000    -0.177383   
N8       N      0.826870000000     0.083170000000     0.453310000000    -0.178404   
N9       N      0.806840000000     0.916610000000     0.610590000000    -0.0824576  
N10      N      0.933570000000     0.192320000000     0.462320000000    -0.177623   
N11      N      0.092840000000     0.189520000000     0.465090000000    -0.178709   
N12      N      0.921170000000     0.203460000000     0.611240000000    -0.0805489  
N13      N      0.721430000000     0.718170000000     0.826820000000    -0.177637   
N14      N      0.786790000000     0.787520000000     0.596000000000    -0.177682   
N15      N      0.792130000000     0.689500000000     0.890400000000    -0.0816776  
N16      N      0.718500000000     0.715710000000     0.101820000000    -0.177213   
N17      N      0.786090000000     0.787400000000     0.327820000000    -0.178038   
N18      N      0.739120000000     0.637070000000     0.136160000000    -0.0822003  
N19      N      0.798090000000     0.217280000000     0.596640000000    -0.176989   
N20      N      0.729630000000     0.290590000000     0.820290000000    -0.178204   
N21      N      0.839420000000     0.158370000000     0.673940000000    -0.0798513  
N22      N      0.725710000000     0.284490000000     0.093910000000    -0.177217   
N23      N      0.796140000000     0.216760000000     0.320980000000    -0.178533   
N24      N      0.649560000000     0.249780000000     0.107020000000    -0.0835887  
N25      N      0.699260000000     0.424750000000     0.958760000000    -0.178022   
N26      N      0.690110000000     0.582470000000     0.960600000000    -0.177981   
N27      N      0.725190000000     0.413100000000     0.101660000000    -0.0823996  
N28      N      0.282310000000     0.717840000000     0.854720000000    -0.176995   
N29      N      0.216930000000     0.789520000000     0.626940000000    -0.177899   
N30      N      0.237450000000     0.647290000000     0.851140000000    -0.0815597  
N31      N      0.219440000000     0.786690000000     0.353440000000    -0.177517   
N32      N      0.286960000000     0.718940000000     0.122900000000    -0.17785    
N33      N      0.186870000000     0.717960000000     0.416470000000    -0.0819787  
N34      N      0.423320000000     0.685690000000     0.972780000000    -0.177397   
N35      N      0.582750000000     0.685320000000     0.961770000000    -0.17856    
N36      N      0.407170000000     0.699520000000     0.825880000000    -0.0829575  
N37      N      0.300420000000     0.282300000000     0.845290000000    -0.176799   
N38      N      0.231770000000     0.213760000000     0.617490000000    -0.178337   
N39      N      0.281510000000     0.224920000000     0.950190000000    -0.0831169  
N40      N      0.293860000000     0.291800000000     0.115590000000    -0.177076   
N41      N      0.226660000000     0.221210000000     0.343530000000    -0.178177   
N42      N      0.227280000000     0.334990000000     0.066570000000    -0.0820996  
N43      N      0.433940000000     0.316250000000     0.970660000000    -0.177589   
N44      N      0.593230000000     0.319250000000     0.968780000000    -0.17785    
N45      N      0.421590000000     0.308470000000     0.821140000000    -0.0835609  
N46      N      0.321580000000     0.581570000000     0.992970000000    -0.17706    
N47      N      0.327760000000     0.423660000000     0.987010000000    -0.178292   
N48      N      0.318590000000     0.592660000000     0.143500000000    -0.0823494  
O1       O      0.389260000000     0.321890000000     0.017400000000    -0.24233    
O2       O      0.316300000000     0.377560000000     0.951100000000    -0.243181   
O3       O      0.334790000000     0.297070000000     0.058610000000    -0.241381   
O4       O      0.314260000000     0.286600000000     0.935630000000    -0.24116    
O5       O      0.324320000000     0.323130000000     0.882980000000    -0.238695   
O6       O      0.295880000000     0.323340000000     0.041040000000    -0.240663   
O7       O      0.386990000000     0.321260000000     0.930890000000    -0.242136   
O8       O      0.348600000000     0.379410000000     0.015360000000    -0.250752   
O9       O      0.324030000000     0.628150000000     0.033520000000    -0.23954    
O10      O      0.375180000000     0.684630000000     0.936910000000    -0.239866   
O11      O      0.287190000000     0.684810000000     0.053000000000    -0.244962   
O12      O      0.317610000000     0.717490000000     0.923440000000    -0.24485    
O13      O      0.290180000000     0.678700000000     0.914460000000    -0.236899   
O14      O      0.325930000000     0.712820000000     0.062110000000    -0.245316   
O15      O      0.324200000000     0.626350000000     0.946910000000    -0.241858   
O16      O      0.379740000000     0.678930000000     0.022530000000    -0.24478    
O17      O      0.689170000000     0.312330000000     0.863490000000    -0.243183   
O18      O      0.687040000000     0.293630000000     0.033050000000    -0.241655   
O19      O      0.639860000000     0.305810000000     0.935810000000    -0.241453   
O20      O      0.689860000000     0.380000000000     0.915370000000    -0.25066    
O21      O      0.700180000000     0.378390000000     0.999860000000    -0.23952    
O22      O      0.637690000000     0.341750000000     0.993250000000    -0.247302   
O23      O      0.730230000000     0.307990000000     0.908190000000    -0.248172   
O24      O      0.727670000000     0.318560000000     0.023840000000    -0.239776   
O25      O      0.679440000000     0.706490000000     0.877990000000    -0.24771    
O26      O      0.691300000000     0.718440000000     0.022040000000    -0.245592   
O27      O      0.695150000000     0.628960000000     0.921920000000    -0.244759   
O28      O      0.627350000000     0.669080000000     0.924410000000    -0.248418   
O29      O      0.629600000000     0.694630000000     0.997860000000    -0.247319   
O30      O      0.674220000000     0.626200000000     0.000270000000    -0.244009   
O31      O      0.721790000000     0.690160000000     0.905880000000    -0.239759   
O32      O      0.706750000000     0.675460000000     0.046770000000    -0.237856   
O33      O      0.812940000000     0.130250000000     0.481200000000    -0.244942   
O34      O      0.888910000000     0.184480000000     0.416710000000    -0.245864   
O35      O      0.828110000000     0.181640000000     0.555090000000    -0.233296   
O36      O      0.804190000000     0.177510000000     0.379450000000    -0.249517   
O37      O      0.828980000000     0.217880000000     0.393120000000    -0.244556   
O38      O      0.806770000000     0.213900000000     0.504350000000    -0.247459   
O39      O      0.851030000000     0.126390000000     0.428190000000    -0.248902   
O40      O      0.886740000000     0.187990000000     0.502990000000    -0.23981    
O41      O      0.877330000000     0.824740000000     0.506310000000    -0.245155   
O42      O      0.824280000000     0.879960000000     0.418090000000    -0.244985   
O43      O      0.821850000000     0.789780000000     0.527120000000    -0.24575    
O44      O      0.824780000000     0.793220000000     0.388910000000    -0.24502    
O45      O      0.787190000000     0.822940000000     0.395400000000    -0.247556   
O46      O      0.790860000000     0.826190000000     0.534980000000    -0.242354   
O47      O      0.878450000000     0.830220000000     0.420250000000    -0.23914    
O48      O      0.821480000000     0.879690000000     0.504650000000    -0.238308   
O49      O      0.130490000000     0.815060000000     0.449320000000    -0.245771   
O50      O      0.198000000000     0.878210000000     0.526520000000    -0.239832   
O51      O      0.208960000000     0.828830000000     0.404140000000    -0.246114   
O52      O      0.176710000000     0.802000000000     0.572700000000    -0.245233   
O53      O      0.220470000000     0.817100000000     0.548360000000    -0.244375   
O54      O      0.191170000000     0.787460000000     0.432590000000    -0.239838   
O55      O      0.127610000000     0.840280000000     0.523080000000    -0.246758   
O56      O      0.176630000000     0.881700000000     0.449200000000    -0.246948   
O57      O      0.199450000000     0.128250000000     0.440920000000    -0.241961   
O58      O      0.139180000000     0.202460000000     0.499630000000    -0.245112   
O59      O      0.221320000000     0.181130000000     0.401000000000    -0.241992   
O60      O      0.230440000000     0.200100000000     0.527330000000    -0.25047    
O61      O      0.191220000000     0.191620000000     0.575650000000    -0.243453   
O62      O      0.194270000000     0.219840000000     0.416700000000    -0.248639   
O63      O      0.188880000000     0.128760000000     0.525840000000    -0.24886    
O64      O      0.137390000000     0.166540000000     0.442410000000    -0.252023   


