data_structure

_audit_creation_method RASPA-1.0
_audit_creation_date 2023-6-5
_audit_author_name 'Poobodin Mano'

_cell_length_a    43.5476
_cell_length_b    44.8302
_cell_length_c    25.1198
_cell_angle_alpha 90.04
_cell_angle_beta  89.8808
_cell_angle_gamma 90
_cell_volume      49040

_symmetry_cell_setting          triclinic
_symmetry_space_group_name_Hall 'P 1'
_symmetry_space_group_name_H-M  'P 1'
_symmetry_Int_Tables_number     1

_symmetry_equiv_pos_as_xyz 'x,y,z'

loop_
_atom_site_label
_atom_site_type_symbol
_atom_site_fract_x
_atom_site_fract_y
_atom_site_fract_z
_atom_site_charge
C1       C      0.410600000000     0.331960000000     0.963890000000     0.372766   
C2       C      0.316890000000     0.312470000000     0.061070000000     0.376227   
C3       C      0.334230000000     0.400760000000     0.960170000000     0.382453   
C4       C      0.318320000000     0.307080000000     0.873640000000     0.373495   
C5       C      0.329110000000     0.619600000000     0.947590000000     0.347496   
C6       C      0.311770000000     0.714110000000     0.048700000000     0.3717     
C7       C      0.402760000000     0.689550000000     0.973220000000     0.374643   
C8       C      0.308960000000     0.708410000000     0.863240000000     0.34913    
C9       C      0.636190000000     0.321950000000     0.968560000000     0.352128   
C10      C      0.729430000000     0.298990000000     0.864430000000     0.351661   
C11      C      0.712420000000     0.389170000000     0.952160000000     0.373742   
C12      C      0.727900000000     0.293680000000     0.048620000000     0.372706   
C13      C      0.703850000000     0.607710000000     0.960340000000     0.350245   
C14      C      0.721250000000     0.700890000000     0.882760000000     0.349013   
C15      C      0.627840000000     0.679800000000     0.978290000000     0.347638   
C16      C      0.720590000000     0.697770000000     0.066850000000     0.373246   
C17      C      0.818540000000     0.200440000000     0.549700000000     0.372284   
C18      C      0.834580000000     0.106970000000     0.467190000000     0.357618   
C19      C      0.817650000000     0.195390000000     0.362040000000     0.348822   
C20      C      0.910870000000     0.175500000000     0.456620000000     0.372308   
C21      C      0.902800000000     0.817910000000     0.455750000000     0.375138   
C22      C      0.810810000000     0.798920000000     0.568390000000     0.372413   
C23      C      0.829690000000     0.888250000000     0.484680000000     0.371673   
C24      C      0.811240000000     0.794500000000     0.381330000000     0.346775   
C25      C      0.127840000000     0.829710000000     0.453830000000     0.352544   
C26      C      0.220460000000     0.810750000000     0.362950000000     0.351927   
C27      C      0.206930000000     0.899840000000     0.458730000000     0.373818   
C28      C      0.218400000000     0.807040000000     0.550810000000     0.374753   
C29      C      0.228400000000     0.214510000000     0.376290000000     0.347997   
C30      C      0.212790000000     0.118480000000     0.469300000000     0.349176   
C31      C      0.229450000000     0.208110000000     0.559950000000     0.347856   
C32      C      0.136500000000     0.186180000000     0.453590000000     0.347984   
C33      C      0.205930000000     0.947270000000     0.415200000000     0.418006   
C34      C      0.220910000000     0.943760000000     0.505750000000     0.0979699  
C35      C      0.208730000000     0.978270000000     0.417130000000    -0.206448   
C36      C      0.229020000000     0.042520000000     0.424060000000    -0.0682062  
C37      C      0.224020000000     0.974730000000     0.508850000000    -0.112234   
C38      C      0.218740000000     0.025600000000     0.467480000000     0.0192596  
C39      C      0.217540000000     0.992460000000     0.464380000000     0.0983627  
C40      C      0.227500000000     0.073610000000     0.425840000000     0.0724012  
C41      C      0.207200000000     0.071860000000     0.513410000000     0.071707   
C42      C      0.208220000000     0.040710000000     0.512880000000    -0.0682726  
C43      C      0.951390000000     0.798160000000     0.482860000000     0.421988   
C44      C      0.948760000000     0.834680000000     0.414670000000     0.101465   
C45      C      0.983450000000     0.798850000000     0.480930000000    -0.204035   
C46      C      0.051320000000     0.795810000000     0.452700000000    -0.0666925  
C47      C      0.980740000000     0.835850000000     0.411800000000    -0.112406   
C48      C      0.032540000000     0.820960000000     0.446460000000     0.0208949  
C49      C      0.998520000000     0.818230000000     0.445880000000     0.101027   
C50      C      0.083200000000     0.799100000000     0.454990000000     0.0758897  
C51      C      0.078420000000     0.851480000000     0.444800000000     0.0758468  
C52      C      0.046520000000     0.849010000000     0.442360000000    -0.0663611  
C53      C      0.847060000000     0.935220000000     0.518630000000     0.417907   
C54      C      0.806430000000     0.933310000000     0.455920000000     0.0974457  
C55      C      0.846430000000     0.966380000000     0.517630000000    -0.204992   
C56      C      0.831310000000     0.032240000000     0.525570000000    -0.0662724  
C57      C      0.805240000000     0.964420000000     0.454090000000    -0.112798   
C58      C      0.826260000000     0.014500000000     0.480490000000     0.0216281  
C59      C      0.825700000000     0.981390000000     0.484540000000     0.0988689  
C60      C      0.833550000000     0.063180000000     0.520500000000     0.0793733  
C61      C      0.825200000000     0.059670000000     0.427470000000     0.0774426  
C62      C      0.822860000000     0.028650000000     0.431090000000    -0.0672101  
C63      C      0.960370000000     0.152400000000     0.452850000000     0.416489   
C64      C      0.956120000000     0.205150000000     0.455690000000     0.0962696  
C65      C      0.992330000000     0.154570000000     0.450800000000    -0.205302   
C66      C      0.058010000000     0.165610000000     0.417090000000    -0.0683687  
C67      C      0.988070000000     0.208030000000     0.453690000000    -0.112486   
C68      C      0.040690000000     0.184900000000     0.449220000000     0.0191707  
C69      C      0.006620000000     0.182550000000     0.451040000000     0.0966146  
C70      C      0.090030000000     0.166820000000     0.418160000000     0.0721383  
C71      C      0.088410000000     0.206380000000     0.480770000000     0.0716248  
C72      C      0.056310000000     0.205770000000     0.480710000000    -0.0684611  
C73      C      0.817230000000     0.774360000000     0.652180000000     0.420263   
C74      C      0.767260000000     0.784420000000     0.619200000000     0.0983069  
C75      C      0.804720000000     0.760550000000     0.697070000000    -0.204956   
C76      C      0.772110000000     0.716950000000     0.770160000000    -0.0679257  
C77      C      0.754070000000     0.770800000000     0.663730000000    -0.112765   
C78      C      0.759340000000     0.743420000000     0.750440000000     0.0196852  
C79      C      0.772850000000     0.758480000000     0.703200000000     0.0988391  
C80      C      0.759130000000     0.703040000000     0.814560000000     0.072881   
C81      C      0.721250000000     0.740880000000     0.820680000000     0.0723275  
C82      C      0.733590000000     0.755340000000     0.776300000000    -0.068653   
C83      C      0.732920000000     0.696360000000     0.159750000000     0.416487   
C84      C      0.747040000000     0.738120000000     0.107110000000     0.0969599  
C85      C      0.745900000000     0.709700000000     0.204740000000    -0.205843   
C86      C      0.790040000000     0.736240000000     0.285880000000    -0.0672514  
C87      C      0.760160000000     0.752000000000     0.151290000000    -0.113585   
C88      C      0.773110000000     0.752590000000     0.248530000000     0.018816   
C89      C      0.759630000000     0.737860000000     0.200950000000     0.0978485  
C90      C      0.802650000000     0.750590000000     0.330160000000     0.0720445  
C91      C      0.782070000000     0.796850000000     0.301640000000     0.0717074  
C92      C      0.769180000000     0.783240000000     0.256980000000    -0.0685133  
C93      C      0.777680000000     0.206220000000     0.612740000000     0.417212   
C94      C      0.821930000000     0.236980000000     0.617960000000     0.0968584  
C95      C      0.765030000000     0.220490000000     0.657090000000    -0.206164   
C96      C      0.736270000000     0.265370000000     0.732130000000    -0.0672402  
C97      C      0.809850000000     0.251670000000     0.662390000000    -0.112833   
C98      C      0.767700000000     0.258780000000     0.729790000000     0.0201441  
C99      C      0.781040000000     0.243520000000     0.682490000000     0.0983187  
C100     C      0.723910000000     0.278990000000     0.777340000000     0.0757151  
C101     C      0.772980000000     0.280150000000     0.817980000000     0.0741085  
C102     C      0.786120000000     0.266510000000     0.773360000000    -0.0678016  
C103     C      0.725630000000     0.254660000000     0.113700000000     0.41606    
C104     C      0.767450000000     0.288600000000     0.112780000000     0.0967429  
C105     C      0.738170000000     0.240000000000     0.157720000000    -0.205435   
C106     C      0.760740000000     0.225530000000     0.269410000000    -0.0672661  
C107     C      0.780570000000     0.274370000000     0.156590000000    -0.113321   
C108     C      0.779380000000     0.234720000000     0.226950000000     0.018913   
C109     C      0.765920000000     0.249790000000     0.179740000000     0.0975487  
C110     C      0.773900000000     0.212190000000     0.314140000000     0.0723447  
C111     C      0.823470000000     0.216320000000     0.275650000000     0.071906   
C112     C      0.811100000000     0.229800000000     0.230400000000    -0.0685349  
C113     C      0.710640000000     0.434980000000     0.903260000000     0.4165     
C114     C      0.721560000000     0.435280000000     0.995780000000     0.0971618  
C115     C      0.710990000000     0.466160000000     0.902370000000    -0.206243   
C116     C      0.690610000000     0.529950000000     0.922500000000    -0.0681043  
C117     C      0.722180000000     0.466410000000     0.996090000000    -0.11333    
C118     C      0.714230000000     0.515350000000     0.949850000000     0.0193416  
C119     C      0.716290000000     0.482260000000     0.949240000000     0.0979351  
C120     C      0.687750000000     0.560900000000     0.925890000000     0.0729265  
C121     C      0.731560000000     0.563540000000     0.981600000000     0.0733235  
C122     C      0.735000000000     0.532570000000     0.979310000000    -0.0678379  
C123     C      0.216980000000     0.795930000000     0.644090000000     0.417559   
C124     C      0.255680000000     0.775000000000     0.588890000000     0.0975592  
C125     C      0.229370000000     0.781490000000     0.688480000000    -0.205006   
C126     C      0.250960000000     0.736040000000     0.770060000000    -0.0668976  
C127     C      0.268510000000     0.760270000000     0.632390000000    -0.113327   
C128     C      0.269390000000     0.748540000000     0.730060000000     0.0199696  
C129     C      0.255480000000     0.763490000000     0.683060000000     0.0986249  
C130     C      0.264550000000     0.722470000000     0.814210000000     0.0740966  
C131     C      0.314160000000     0.733080000000     0.780070000000     0.0743643  
C132     C      0.301360000000     0.746840000000     0.735520000000    -0.0666252  
C133     C      0.304890000000     0.758140000000     0.101540000000     0.417513   
C134     C      0.281100000000     0.712640000000     0.126690000000     0.0975826  
C135     C      0.292020000000     0.772440000000     0.145770000000    -0.205097   
C136     C      0.276060000000     0.791690000000     0.258800000000    -0.0674981  
C137     C      0.267910000000     0.726290000000     0.171070000000    -0.113506   
C138     C      0.259230000000     0.771360000000     0.228140000000     0.0200371  
C139     C      0.273240000000     0.756550000000     0.181070000000     0.0982849  
C140     C      0.262680000000     0.804830000000     0.303650000000     0.0748929  
C141     C      0.216300000000     0.778510000000     0.288230000000     0.0737612  
C142     C      0.228950000000     0.764970000000     0.243230000000    -0.0683973  
C143     C      0.450970000000     0.711020000000     0.948170000000     0.419157   
C144     C      0.449000000000     0.672270000000     0.012400000000     0.0984564  
C145     C      0.483020000000     0.711030000000     0.950320000000    -0.206291   
C146     C      0.548610000000     0.690710000000     0.934490000000    -0.0681856  
C147     C      0.481010000000     0.671770000000     0.015430000000    -0.113133   
C148     C      0.532520000000     0.689060000000     0.982730000000     0.0189611  
C149     C      0.498450000000     0.690920000000     0.983420000000     0.0987277  
C150     C      0.580500000000     0.687830000000     0.933870000000     0.0725076  
C151     C      0.581190000000     0.682080000000     0.027700000000     0.0717605  
C152     C      0.549220000000     0.684800000000     0.029750000000    -0.0675079  
C153     C      0.277580000000     0.301290000000     0.810680000000     0.419638   
C154     C      0.321610000000     0.270190000000     0.805960000000     0.0980955  
C155     C      0.264920000000     0.286870000000     0.766580000000    -0.205746   
C156     C      0.236140000000     0.241660000000     0.692270000000    -0.0680866  
C157     C      0.309550000000     0.255370000000     0.761760000000    -0.113099   
C158     C      0.267560000000     0.248270000000     0.694430000000     0.0191355  
C159     C      0.280850000000     0.263620000000     0.741550000000     0.0985644  
C160     C      0.223830000000     0.227990000000     0.647150000000     0.0723134  
C161     C      0.272950000000     0.226840000000     0.606300000000     0.0711895  
C162     C      0.286040000000     0.240490000000     0.650840000000    -0.0686751  
C163     C      0.272900000000     0.295540000000     0.109850000000     0.419778   
C164     C      0.322630000000     0.292480000000     0.147910000000     0.0999096  
C165     C      0.260120000000     0.282410000000     0.155260000000    -0.20469    
C166     C      0.238020000000     0.268190000000     0.267600000000    -0.0676924  
C167     C      0.310560000000     0.279250000000     0.193670000000    -0.112652   
C168     C      0.265900000000     0.258770000000     0.245240000000     0.0194434  
C169     C      0.278980000000     0.273860000000     0.197660000000     0.098796   
C170     C      0.225880000000     0.253300000000     0.311760000000     0.0720943  
C171     C      0.268200000000     0.220020000000     0.312230000000     0.071921   
C172     C      0.281030000000     0.234440000000     0.268280000000    -0.0687293  
C173     C      0.460060000000     0.355080000000     0.960150000000     0.418286   
C174     C      0.455890000000     0.302590000000     0.970110000000     0.0975149  
C175     C      0.492030000000     0.353090000000     0.962100000000    -0.206433   
C176     C      0.557390000000     0.344430000000     0.999350000000    -0.0677079  
C177     C      0.487860000000     0.299890000000     0.972010000000    -0.113079   
C178     C      0.540380000000     0.323260000000     0.970860000000     0.0201756  
C179     C      0.506340000000     0.325360000000     0.968370000000     0.0986383  
C180     C      0.589410000000     0.343230000000     0.999100000000     0.0753652  
C181     C      0.588360000000     0.300180000000     0.944240000000     0.0754197  
C182     C      0.556250000000     0.300670000000     0.943750000000    -0.067325   
C183     C      0.327100000000     0.448030000000     0.002870000000     0.423702   
C184     C      0.330940000000     0.445030000000     0.908780000000     0.10471    
C185     C      0.324830000000     0.479080000000     0.999940000000    -0.204882   
C186     C      0.306270000000     0.543340000000     0.981210000000    -0.0676312  
C187     C      0.328660000000     0.476000000000     0.904580000000    -0.111523   
C188     C      0.325110000000     0.526610000000     0.947160000000     0.0200163  
C189     C      0.325890000000     0.493490000000     0.950500000000     0.100724   
C190     C      0.307360000000     0.574460000000     0.979910000000     0.0727305  
C191     C      0.344510000000     0.573040000000     0.910820000000     0.072093   
C192     C      0.344050000000     0.541880000000     0.911130000000    -0.0677399  
Cd1      Cd     0.344330000000     0.337120000000     0.965270000000     0.522658   
Cd2      Cd     0.337300000000     0.683360000000     0.957430000000     0.518316   
Cd3      Cd     0.702260000000     0.325430000000     0.958600000000     0.518067   
Cd4      Cd     0.693610000000     0.671160000000     0.972820000000     0.515312   
Cd5      Cd     0.844600000000     0.170430000000     0.457840000000     0.517131   
Cd6      Cd     0.837470000000     0.824390000000     0.472800000000     0.520173   
Cd7      Cd     0.193810000000     0.836590000000     0.457650000000     0.518975   
Cd8      Cd     0.202400000000     0.182200000000     0.465310000000     0.512808   
F1       F      0.196890000000     0.934880000000     0.368380000000    -0.434892   
F2       F      0.938020000000     0.779330000000     0.518410000000    -0.421551   
F3       F      0.868040000000     0.921910000000     0.550810000000    -0.430236   
F4       F      0.947920000000     0.124590000000     0.452690000000    -0.435932   
F5       F      0.848350000000     0.775680000000     0.648500000000    -0.420755   
F6       F      0.719720000000     0.669100000000     0.165880000000    -0.435524   
F7       F      0.761070000000     0.183950000000     0.589980000000    -0.434964   
F8       F      0.698690000000     0.244130000000     0.093950000000    -0.435975   
F9       F      0.705030000000     0.420550000000     0.856690000000    -0.436391   
F10      F      0.191780000000     0.813300000000     0.651800000000    -0.433455   
F11      F      0.322800000000     0.774670000000     0.068440000000    -0.431246   
F12      F      0.437290000000     0.730850000000     0.914880000000    -0.431314   
F13      F      0.261070000000     0.323770000000     0.833100000000    -0.428735   
F14      F      0.253520000000     0.303080000000     0.069710000000    -0.427637   
F15      F      0.447580000000     0.382640000000     0.953960000000    -0.434501   
F16      F      0.326350000000     0.435350000000     0.051990000000    -0.429905   
H1       H      0.235190000000     0.085820000000     0.391020000000     0.0424511  
H2       H      0.225820000000     0.930940000000     0.541320000000     0.039814   
H3       H      0.199800000000     0.028600000000     0.547230000000     0.0600852  
H4       H      0.231390000000     0.984680000000     0.545990000000     0.0715197  
H5       H      0.237960000000     0.031850000000     0.388570000000     0.0629247  
H6       H      0.203130000000     0.991090000000     0.381940000000     0.124388   
H7       H      0.198280000000     0.082680000000     0.548850000000     0.0412491  
H8       H      0.096950000000     0.779130000000     0.459850000000     0.0446616  
H9       H      0.935930000000     0.849120000000     0.388160000000     0.037815   
H10      H      0.032910000000     0.869100000000     0.438380000000     0.0638869  
H11      H      0.991440000000     0.850710000000     0.383280000000     0.0729895  
H12      H      0.041500000000     0.773670000000     0.455480000000     0.0645856  
H13      H      0.996330000000     0.784920000000     0.508120000000     0.128985   
H14      H      0.088270000000     0.873630000000     0.441800000000     0.0476265  
H15      H      0.837760000000     0.076050000000     0.556310000000     0.0487335  
H16      H      0.790440000000     0.921100000000     0.431070000000     0.0362921  
H17      H      0.819280000000     0.015840000000     0.395070000000     0.0606277  
H18      H      0.788430000000     0.975080000000     0.428700000000     0.0709146  
H19      H      0.833570000000     0.022320000000     0.564670000000     0.0662651  
H20      H      0.862810000000     0.978610000000     0.541560000000     0.127325   
H21      H      0.822900000000     0.069700000000     0.388410000000     0.0439108  
H22      H      0.102530000000     0.151210000000     0.393220000000     0.0420086  
H23      H      0.942650000000     0.225470000000     0.457430000000     0.0355929  
H24      H      0.043890000000     0.220990000000     0.506410000000     0.0588018  
H25      H      0.998110000000     0.230130000000     0.453530000000     0.0697259  
H26      H      0.046910000000     0.149530000000     0.391300000000     0.0631894  
H27      H      0.005820000000     0.134270000000     0.449800000000     0.123644   
H28      H      0.099630000000     0.222460000000     0.506470000000     0.0419378  
H29      H      0.769610000000     0.682520000000     0.828410000000     0.0426922  
H30      H      0.751860000000     0.793410000000     0.589370000000     0.0357811  
H31      H      0.723220000000     0.775940000000     0.762800000000     0.0597173  
H32      H      0.729290000000     0.769470000000     0.666640000000     0.0705833  
H33      H      0.791800000000     0.706760000000     0.751000000000     0.0651084  
H34      H      0.820030000000     0.751740000000     0.727130000000     0.127454   
H35      H      0.701350000000     0.750890000000     0.839610000000     0.0417984  
H36      H      0.815720000000     0.737200000000     0.358020000000     0.0451817  
H37      H      0.748040000000     0.749940000000     0.069490000000     0.0354762  
H38      H      0.755890000000     0.796680000000     0.229590000000     0.0587904  
H39      H      0.770930000000     0.773590000000     0.146310000000     0.0705334  
H40      H      0.793940000000     0.712560000000     0.280630000000     0.0638122  
H41      H      0.744710000000     0.698160000000     0.242560000000     0.123622   
H42      H      0.778420000000     0.820620000000     0.306680000000     0.0420118  
H43      H      0.699470000000     0.283620000000     0.777540000000     0.0459653  
H44      H      0.844270000000     0.244090000000     0.603660000000     0.0357381  
H45      H      0.810460000000     0.261550000000     0.773550000000     0.0595819  
H46      H      0.822910000000     0.269580000000     0.680400000000     0.0708359  
H47      H      0.721250000000     0.260250000000     0.699050000000     0.0645356  
H48      H      0.742890000000     0.213150000000     0.671850000000     0.124504   
H49      H      0.787960000000     0.285540000000     0.851050000000     0.0423532  
H50      H      0.758700000000     0.205690000000     0.346360000000     0.0459956  
H51      H      0.779560000000     0.307640000000     0.096420000000     0.036198   
H52      H      0.826310000000     0.236150000000     0.198190000000     0.0590216  
H53      H      0.801860000000     0.282950000000     0.172720000000     0.0701314  
H54      H      0.736150000000     0.229180000000     0.268670000000     0.0640373  
H55      H      0.726290000000     0.220840000000     0.174080000000     0.123808   
H56      H      0.848130000000     0.213010000000     0.276810000000     0.0417819  
H57      H      0.668860000000     0.571260000000     0.904770000000     0.0419701  
H58      H      0.725560000000     0.423960000000     0.033270000000     0.0366053  
H59      H      0.753800000000     0.522200000000     0.000540000000     0.060563   
H60      H      0.726210000000     0.477960000000     0.033320000000     0.0718197  
H61      H      0.673840000000     0.517490000000     0.899750000000     0.063628   
H62      H      0.706900000000     0.477620000000     0.865100000000     0.123666   
H63      H      0.747940000000     0.576080000000     0.005150000000     0.0457979  
H64      H      0.249520000000     0.713110000000     0.844340000000     0.0433905  
H65      H      0.266610000000     0.771820000000     0.550470000000     0.0353665  
H66      H      0.316520000000     0.756550000000     0.706030000000     0.0616456  
H67      H      0.288420000000     0.746210000000     0.626110000000     0.0705355  
H68      H      0.226150000000     0.736460000000     0.767150000000     0.0640916  
H69      H      0.218800000000     0.784910000000     0.727070000000     0.125693   
H70      H      0.339000000000     0.732460000000     0.782860000000     0.0502757  
H71      H      0.276530000000     0.820250000000     0.326620000000     0.0448288  
H72      H      0.276350000000     0.689130000000     0.120670000000     0.0367209  
H73      H      0.214960000000     0.749730000000     0.220210000000     0.059995   
H74      H      0.253910000000     0.713030000000     0.197760000000     0.0705254  
H75      H      0.299640000000     0.797040000000     0.248880000000     0.0644408  
H76      H      0.296440000000     0.795980000000     0.151830000000     0.125906   
H77      H      0.192810000000     0.772910000000     0.298580000000     0.042325   
H78      H      0.591990000000     0.688950000000     0.895590000000     0.0422689  
H79      H      0.436440000000     0.656570000000     0.037020000000     0.03602    
H80      H      0.537720000000     0.683700000000     0.067970000000     0.0603757  
H81      H      0.491990000000     0.655730000000     0.041410000000     0.0712102  
H82      H      0.536620000000     0.693550000000     0.897100000000     0.0633186  
H83      H      0.495670000000     0.726670000000     0.925790000000     0.124737   
H84      H      0.593310000000     0.678710000000     0.064880000000     0.045002   
H85      H      0.199390000000     0.223360000000     0.647030000000     0.0428887  
H86      H      0.343870000000     0.262990000000     0.820380000000     0.0360011  
H87      H      0.310380000000     0.245460000000     0.650560000000     0.0586287  
H88      H      0.322520000000     0.237300000000     0.744010000000     0.0702628  
H89      H      0.221090000000     0.246840000000     0.725390000000     0.0645626  
H90      H      0.242870000000     0.294260000000     0.751700000000     0.125456   
H91      H      0.287970000000     0.221440000000     0.573180000000     0.0404205  
H92      H      0.204260000000     0.261230000000     0.327910000000     0.0418726  
H93      H      0.347250000000     0.296100000000     0.146530000000     0.0382997  
H94      H      0.302420000000     0.226160000000     0.251890000000     0.0591288  
H95      H      0.325940000000     0.273390000000     0.225840000000     0.0713502  
H96      H      0.225740000000     0.287120000000     0.251400000000     0.0645984  
H97      H      0.235610000000     0.278380000000     0.156580000000     0.125497   
H98      H      0.280560000000     0.201130000000     0.328560000000     0.0417995  
H99      H      0.601670000000     0.360260000000     0.021160000000     0.0437824  
H100     H      0.442440000000     0.282330000000     0.973570000000     0.0362753  
H101     H      0.544010000000     0.283950000000     0.921010000000     0.0604405  
H102     H      0.497970000000     0.278020000000     0.977200000000     0.071535   
H103     H      0.546050000000     0.361940000000     0.021700000000     0.064623   
H104     H      0.505520000000     0.373280000000     0.958120000000     0.124881   
H105     H      0.599820000000     0.282690000000     0.921950000000     0.0455108  
H106     H      0.292740000000     0.586560000000     0.007460000000     0.0434258  
H107     H      0.333310000000     0.432420000000     0.872140000000     0.0428359  
H108     H      0.359210000000     0.529910000000     0.884390000000     0.061169   
H109     H      0.329070000000     0.486120000000     0.865450000000     0.0732485  
H110     H      0.290840000000     0.532500000000     0.008970000000     0.0644299  
H111     H      0.323050000000     0.491770000000     0.036530000000     0.125874   
H112     H      0.359930000000     0.583990000000     0.883100000000     0.0419951  
N1       N      0.211490000000     0.930120000000     0.459590000000    -0.226991   
N2       N      0.216130000000     0.088110000000     0.469770000000    -0.176314   
N3       N      0.934150000000     0.816540000000     0.450750000000    -0.225561   
N4       N      0.096590000000     0.826740000000     0.451260000000    -0.174613   
N5       N      0.827560000000     0.918770000000     0.487060000000    -0.226801   
N6       N      0.830910000000     0.076720000000     0.471730000000    -0.173817   
N7       N      0.942320000000     0.177590000000     0.455160000000    -0.227144   
N8       N      0.105100000000     0.186690000000     0.450440000000    -0.175771   
N9       N      0.798570000000     0.786050000000     0.613220000000    -0.225938   
N10      N      0.733890000000     0.714920000000     0.839540000000    -0.175956   
N11      N      0.733430000000     0.710580000000     0.111180000000    -0.227574   
N12      N      0.798700000000     0.780660000000     0.337870000000    -0.175275   
N13      N      0.806020000000     0.214440000000     0.593250000000    -0.227355   
N14      N      0.742090000000     0.286150000000     0.820020000000    -0.174787   
N15      N      0.740180000000     0.278930000000     0.091460000000    -0.227319   
N16      N      0.805030000000     0.207810000000     0.317330000000    -0.175529   
N17      N      0.715200000000     0.419640000000     0.950050000000    -0.227645   
N18      N      0.707860000000     0.577510000000     0.955690000000    -0.175385   
N19      N      0.230190000000     0.792780000000     0.594560000000    -0.227681   
N20      N      0.295900000000     0.721150000000     0.819220000000    -0.174271   
N21      N      0.299390000000     0.728370000000     0.092060000000    -0.22712    
N22      N      0.233100000000     0.798140000000     0.318340000000    -0.175368   
N23      N      0.434080000000     0.691250000000     0.978220000000    -0.227107   
N24      N      0.596620000000     0.683340000000     0.980060000000    -0.175461   
N25      N      0.305820000000     0.292970000000     0.830300000000    -0.226499   
N26      N      0.242070000000     0.220850000000     0.604390000000    -0.176176   
N27      N      0.304060000000     0.300330000000     0.106060000000    -0.226113   
N28      N      0.240800000000     0.229300000000     0.333660000000    -0.175945   
N29      N      0.442050000000     0.329950000000     0.964510000000    -0.227099   
N30      N      0.604760000000     0.321580000000     0.971030000000    -0.174372   
N31      N      0.330560000000     0.431120000000     0.957500000000    -0.225203   
N32      N      0.326730000000     0.589150000000     0.945650000000    -0.175616   
O1       O      0.345490000000     0.317020000000     0.056890000000    -0.243189   
O2       O      0.304700000000     0.328110000000     0.897570000000    -0.191979   
O3       O      0.393460000000     0.309230000000     0.968690000000    -0.24222    
O4       O      0.334330000000     0.386730000000     0.003970000000    -0.193906   
O5       O      0.338470000000     0.385030000000     0.918830000000    -0.233487   
O6       O      0.396810000000     0.356680000000     0.959190000000    -0.20162    
O7       O      0.301070000000     0.319520000000     0.020820000000    -0.193824   
O8       O      0.344290000000     0.299880000000     0.892330000000    -0.247112   
O9       O      0.306840000000     0.686750000000     0.039610000000    -0.244205   
O10      O      0.337780000000     0.706950000000     0.869050000000    -0.227539   
O11      O      0.314260000000     0.635020000000     0.981150000000    -0.237947   
O12      O      0.386840000000     0.671120000000     0.999760000000    -0.250334   
O13      O      0.388030000000     0.705450000000     0.940370000000    -0.192736   
O14      O      0.347180000000     0.633940000000     0.917400000000    -0.245111   
O15      O      0.328730000000     0.727330000000     0.015180000000    -0.200176   
O16      O      0.293050000000     0.697790000000     0.900990000000    -0.24373    
O17      O      0.700950000000     0.304370000000     0.867980000000    -0.232971   
O18      O      0.740860000000     0.316260000000     0.028230000000    -0.245421   
O19      O      0.651290000000     0.302960000000     0.941770000000    -0.230068   
O20      O      0.705720000000     0.373660000000     0.911670000000    -0.206257   
O21      O      0.715180000000     0.374860000000     0.995370000000    -0.245214   
O22      O      0.651890000000     0.341940000000     0.991570000000    -0.241595   
O23      O      0.745400000000     0.305980000000     0.904640000000    -0.24246    
O24      O      0.702940000000     0.285780000000     0.027020000000    -0.205982   
O25      O      0.732010000000     0.676680000000     0.901030000000    -0.244535   
O26      O      0.707730000000     0.672450000000     0.068020000000    -0.200026   
O27      O      0.721820000000     0.623910000000     0.987440000000    -0.235097   
O28      O      0.642580000000     0.680260000000     0.934820000000    -0.240895   
O29      O      0.643700000000     0.675500000000     0.019800000000    -0.238301   
O30      O      0.681500000000     0.621060000000     0.938710000000    -0.245925   
O31      O      0.697930000000     0.711250000000     0.906690000000    -0.239858   
O32      O      0.720810000000     0.710660000000     0.021980000000    -0.251828   
O33      O      0.840880000000     0.123210000000     0.507010000000    -0.230777   
O34      O      0.893730000000     0.198350000000     0.458830000000    -0.243256   
O35      O      0.804750000000     0.179720000000     0.525300000000    -0.201235   
O36      O      0.801500000000     0.187780000000     0.401700000000    -0.238319   
O37      O      0.846260000000     0.191180000000     0.366610000000    -0.243785   
O38      O      0.844690000000     0.207410000000     0.531310000000    -0.247387   
O39      O      0.832590000000     0.120300000000     0.422800000000    -0.237751   
O40      O      0.897100000000     0.150640000000     0.455430000000    -0.204512   
O41      O      0.839450000000     0.800590000000     0.560690000000    -0.183717   
O42      O      0.808050000000     0.822190000000     0.389450000000    -0.239728   
O43      O      0.888300000000     0.802700000000     0.489990000000    -0.183452   
O44      O      0.849490000000     0.873760000000     0.510890000000    -0.198514   
O45      O      0.812790000000     0.872860000000     0.454230000000    -0.243929   
O46      O      0.886660000000     0.835550000000     0.428030000000    -0.246747   
O47      O      0.794180000000     0.809500000000     0.531610000000    -0.249959   
O48      O      0.826740000000     0.780460000000     0.415820000000    -0.240271   
O49      O      0.193340000000     0.804840000000     0.377880000000    -0.24198    
O50      O      0.194630000000     0.823270000000     0.553180000000    -0.201625   
O51      O      0.145510000000     0.807520000000     0.459900000000    -0.236381   
O52      O      0.197760000000     0.886300000000     0.417470000000    -0.200512   
O53      O      0.210700000000     0.883740000000     0.499690000000    -0.242503   
O54      O      0.140850000000     0.854880000000     0.450120000000    -0.235296   
O55      O      0.235260000000     0.828830000000     0.392020000000    -0.237065   
O56      O      0.230690000000     0.804760000000     0.505240000000    -0.251622   
O57      O      0.218900000000     0.133910000000     0.428420000000    -0.240831   
O58      O      0.151260000000     0.203720000000     0.483780000000    -0.238281   
O59      O      0.241340000000     0.191960000000     0.396640000000    -0.239973   
O60      O      0.245430000000     0.201350000000     0.519540000000    -0.247292   
O61      O      0.201000000000     0.202670000000     0.556480000000    -0.240432   
O62      O      0.203220000000     0.222340000000     0.397510000000    -0.246295   
O63      O      0.202380000000     0.132760000000     0.508960000000    -0.247235   
O64      O      0.152490000000     0.167410000000     0.427900000000    -0.246081   


