data_structure

_audit_creation_method RASPA-1.0
_audit_creation_date 2023-6-5
_audit_author_name 'Poobodin Mano'

_cell_length_a    44.677
_cell_length_b    44.6252
_cell_length_c    24.7443
_cell_angle_alpha 90.0397
_cell_angle_beta  89.8805
_cell_angle_gamma 90.0001
_cell_volume      49333.1

_symmetry_cell_setting          triclinic
_symmetry_space_group_name_Hall 'P 1'
_symmetry_space_group_name_H-M  'P 1'
_symmetry_Int_Tables_number     1

_symmetry_equiv_pos_as_xyz 'x,y,z'

loop_
_atom_site_label
_atom_site_type_symbol
_atom_site_fract_x
_atom_site_fract_y
_atom_site_fract_z
_atom_site_charge
C1       C      0.400090000000     0.327050000000     0.972650000000     0.345505   
C2       C      0.305960000000     0.309610000000     0.075890000000     0.346026   
C3       C      0.326140000000     0.399570000000     0.998120000000     0.346737   
C4       C      0.313640000000     0.309020000000     0.884390000000     0.347469   
C5       C      0.324220000000     0.619790000000     0.988780000000     0.345178   
C6       C      0.299570000000     0.710800000000     0.070020000000     0.346564   
C7       C      0.393700000000     0.690410000000     0.963730000000     0.346852   
C8       C      0.301080000000     0.714650000000     0.888710000000     0.345705   
C9       C      0.713860000000     0.301120000000     0.866670000000     0.347158   
C10      C      0.620360000000     0.322680000000     0.965640000000     0.34682    
C11      C      0.715820000000     0.300460000000     0.048410000000     0.345368   
C12      C      0.690750000000     0.393380000000     0.960830000000     0.345982   
C13      C      0.702570000000     0.709910000000     0.865130000000     0.346873   
C14      C      0.687250000000     0.613950000000     0.959000000000     0.345805   
C15      C      0.707800000000     0.702790000000     0.050050000000     0.346754   
C16      C      0.613610000000     0.686270000000     0.950100000000     0.347889   
C17      C      0.809310000000     0.208000000000     0.548690000000     0.346708   
C18      C      0.824200000000     0.113860000000     0.460750000000     0.346928   
C19      C      0.810140000000     0.203620000000     0.362870000000     0.348666   
C20      C      0.901700000000     0.182830000000     0.461100000000     0.348631   
C21      C      0.891830000000     0.821520000000     0.443380000000     0.345677   
C22      C      0.799200000000     0.806830000000     0.552480000000     0.345043   
C23      C      0.819360000000     0.893800000000     0.467780000000     0.347176   
C24      C      0.802940000000     0.797510000000     0.365270000000     0.347105   
C25      C      0.201610000000     0.802340000000     0.386670000000     0.346393   
C26      C      0.111350000000     0.825430000000     0.466320000000     0.346608   
C27      C      0.204410000000     0.806440000000     0.571540000000     0.34774    
C28      C      0.182460000000     0.897190000000     0.485610000000     0.344989   
C29      C      0.214030000000     0.211670000000     0.392320000000     0.345439   
C30      C      0.191630000000     0.117620000000     0.490750000000     0.346718   
C31      C      0.216990000000     0.211530000000     0.572970000000     0.345647   
C32      C      0.121900000000     0.187320000000     0.482330000000     0.346084   
C33      C      0.190430000000     0.070860000000     0.541340000000     0.101287   
C34      C      0.195770000000     0.071110000000     0.445720000000     0.0705     
C35      C      0.189840000000     0.039450000000     0.540870000000    -0.0949492  
C36      C      0.169290000000     0.975310000000     0.524020000000    -0.0800262  
C37      C      0.195350000000     0.039870000000     0.444410000000    -0.0843305  
C38      C      0.190070000000     0.990380000000     0.491390000000     0.0335543  
C39      C      0.191950000000     0.023640000000     0.492240000000     0.0419572  
C40      C      0.167220000000     0.944120000000     0.521870000000     0.0699311  
C41      C      0.205990000000     0.942190000000     0.456370000000     0.0701168  
C42      C      0.208620000000     0.973400000000     0.457420000000    -0.0798818  
C43      C      0.939650000000     0.834790000000     0.402650000000     0.101057   
C44      C      0.936900000000     0.801460000000     0.477380000000     0.0704234  
C45      C      0.970990000000     0.833970000000     0.405130000000    -0.0945651  
C46      C      0.037250000000     0.818800000000     0.404440000000    -0.0801937  
C47      C      0.968030000000     0.800190000000     0.480340000000    -0.0843453  
C48      C      0.018670000000     0.817890000000     0.450140000000     0.0336815  
C49      C      0.985510000000     0.817070000000     0.444770000000     0.0417817  
C50      C      0.068260000000     0.821070000000     0.410550000000     0.0697927  
C51      C      0.063080000000     0.820940000000     0.505930000000     0.0705001  
C52      C      0.032030000000     0.818800000000     0.501310000000    -0.0799944  
C53      C      0.811020000000     0.066730000000     0.417140000000     0.101525   
C54      C      0.823990000000     0.068650000000     0.510200000000     0.0705195  
C55      C      0.808760000000     0.035430000000     0.420310000000    -0.0945446  
C56      C      0.793370000000     0.970300000000     0.442220000000    -0.0799947  
C57      C      0.821650000000     0.037590000000     0.514290000000    -0.0844757  
C58      C      0.814320000000     0.987150000000     0.471430000000     0.0337731  
C59      C      0.814510000000     0.020480000000     0.468860000000     0.0419119  
C60      C      0.794950000000     0.939020000000     0.442340000000     0.0704048  
C61      C      0.836810000000     0.940560000000     0.501000000000     0.0705006  
C62      C      0.835970000000     0.971820000000     0.501580000000    -0.0800619  
C63      C      0.073550000000     0.193880000000     0.526530000000     0.100663   
C64      C      0.077110000000     0.184520000000     0.432130000000     0.0700525  
C65      C      0.042220000000     0.193910000000     0.522680000000    -0.0946502  
C66      C      0.976940000000     0.207760000000     0.498770000000    -0.080082   
C67      C      0.046030000000     0.184540000000     0.427450000000    -0.0845285  
C68      C      0.994910000000     0.187920000000     0.469070000000     0.0336313  
C69      C      0.028130000000     0.188990000000     0.473060000000     0.0416347  
C70      C      0.945770000000     0.205890000000     0.495380000000     0.0701217  
C71      C      0.949640000000     0.165490000000     0.433490000000     0.0703317  
C72      C      0.980830000000     0.166690000000     0.436000000000    -0.0802212  
C73      C      0.704250000000     0.752240000000     0.803020000000     0.101008   
C74      C      0.739190000000     0.712210000000     0.796420000000     0.0708396  
C75      C      0.718100000000     0.766460000000     0.759020000000    -0.0947544  
C76      C      0.740720000000     0.782720000000     0.646790000000    -0.0800942  
C77      C      0.753230000000     0.725950000000     0.752640000000    -0.0846343  
C78      C      0.757620000000     0.768310000000     0.686720000000     0.0334777  
C79      C      0.742800000000     0.753420000000     0.733420000000     0.041908   
C80      C      0.755010000000     0.795870000000     0.602490000000     0.0695778  
C81      C      0.802390000000     0.781190000000     0.636410000000     0.0701514  
C82      C      0.788840000000     0.767890000000     0.681270000000    -0.0800212  
C83      C      0.780080000000     0.753220000000     0.325320000000     0.101108   
C84      C      0.788100000000     0.797480000000     0.273770000000     0.0703927  
C85      C      0.766940000000     0.739490000000     0.280230000000    -0.0951988  
C86      C      0.722930000000     0.725060000000     0.189730000000    -0.080299   
C87      C      0.775370000000     0.784130000000     0.228360000000    -0.0848002  
C88      C      0.749890000000     0.740740000000     0.183920000000     0.0336722  
C89      C      0.764400000000     0.754920000000     0.231370000000     0.0419363  
C90      C      0.709170000000     0.712450000000     0.144500000000     0.070494   
C91      C      0.748430000000     0.729920000000     0.088080000000     0.07029    
C92      C      0.762650000000     0.743070000000     0.132370000000    -0.0803889  
C93      C      0.791320000000     0.252940000000     0.594270000000     0.101275   
C94      C      0.787290000000     0.204950000000     0.635320000000     0.0703992  
C95      C      0.777870000000     0.265990000000     0.639820000000    -0.0947134  
C96      C      0.764820000000     0.289560000000     0.752510000000    -0.080212   
C97      C      0.773910000000     0.217490000000     0.680970000000    -0.084414   
C98      C      0.754700000000     0.262080000000     0.732040000000     0.0336854  
C99      C      0.769050000000     0.248340000000     0.683720000000     0.0418568  
C100     C      0.750950000000     0.302260000000     0.797660000000     0.0702025  
C101     C      0.717360000000     0.261230000000     0.803210000000     0.070263   
C102     C      0.730690000000     0.247910000000     0.758090000000    -0.0801923  
C103     C      0.754520000000     0.300270000000     0.117540000000     0.101388   
C104     C      0.719640000000     0.260240000000     0.109990000000     0.0701837  
C105     C      0.767950000000     0.285900000000     0.161630000000    -0.0950482  
C106     C      0.802230000000     0.243390000000     0.234340000000    -0.0803389  
C107     C      0.732690000000     0.245590000000     0.153780000000    -0.0846076  
C108     C      0.771090000000     0.243350000000     0.227550000000     0.0334835  
C109     C      0.757120000000     0.258380000000     0.180250000000     0.0417254  
C110     C      0.814930000000     0.229840000000     0.279680000000     0.0701312  
C111     C      0.766850000000     0.215840000000     0.311640000000     0.0701051  
C112     C      0.753400000000     0.229210000000     0.266810000000    -0.0804323  
C113     C      0.705200000000     0.439930000000     0.004850000000     0.10177    
C114     C      0.682520000000     0.439890000000     0.918000000000     0.0704463  
C115     C      0.705790000000     0.471350000000     0.004270000000    -0.0949938  
C116     C      0.686930000000     0.536550000000     0.007700000000    -0.0799437  
C117     C      0.682830000000     0.471120000000     0.916700000000    -0.0843981  
C118     C      0.693790000000     0.520640000000     0.960400000000     0.0334666  
C119     C      0.694300000000     0.487290000000     0.960320000000     0.0419083  
C120     C      0.685390000000     0.567790000000     0.006710000000     0.0700398  
C121     C      0.697620000000     0.568160000000     0.913430000000     0.0701882  
C122     C      0.699460000000     0.536910000000     0.913020000000    -0.0800037  
C123     C      0.290610000000     0.759320000000     0.835470000000     0.100803   
C124     C      0.271140000000     0.711730000000     0.810390000000     0.0703325  
C125     C      0.276920000000     0.772240000000     0.790160000000    -0.0947918  
C126     C      0.260140000000     0.790500000000     0.675970000000    -0.0799687  
C127     C      0.257400000000     0.724130000000     0.765110000000    -0.0843503  
C128     C      0.245600000000     0.768310000000     0.706300000000     0.0336791  
C129     C      0.260190000000     0.754710000000     0.754410000000     0.0418238  
C130     C      0.246050000000     0.803040000000     0.630990000000     0.0700842  
C131     C      0.203550000000     0.772170000000     0.644990000000     0.0706083  
C132     C      0.216940000000     0.759220000000     0.690240000000    -0.0799695  
C133     C      0.215020000000     0.757310000000     0.336410000000     0.10115    
C134     C      0.227350000000     0.805840000000     0.303550000000     0.0705774  
C135     C      0.228790000000     0.744420000000     0.291020000000    -0.0948214  
C136     C      0.244090000000     0.724810000000     0.176200000000    -0.0801868  
C137     C      0.241240000000     0.793460000000     0.258270000000    -0.0845164  
C138     C      0.257120000000     0.748920000000     0.203780000000     0.0337261  
C139     C      0.242150000000     0.762430000000     0.251600000000     0.0419473  
C140     C      0.258540000000     0.712400000000     0.131340000000     0.0701989  
C141     C      0.298510000000     0.746990000000     0.140520000000     0.0705477  
C142     C      0.284630000000     0.760010000000     0.185340000000    -0.0801166  
C143     C      0.438710000000     0.689760000000     0.908140000000     0.100893   
C144     C      0.441280000000     0.697100000000     0.003210000000     0.070384   
C145     C      0.470050000000     0.690330000000     0.905180000000    -0.0950247  
C146     C      0.535150000000     0.672020000000     0.916750000000    -0.0804206  
C147     C      0.472450000000     0.697810000000     0.001110000000    -0.0843318  
C148     C      0.520480000000     0.693090000000     0.949390000000     0.0336689  
C149     C      0.487240000000     0.694010000000     0.951840000000     0.041676   
C150     C      0.566350000000     0.670400000000     0.916810000000     0.0700873  
C151     C      0.569030000000     0.710370000000     0.979800000000     0.0702568  
C152     C      0.537840000000     0.712600000000     0.980760000000    -0.0804773  
C153     C      0.291580000000     0.313230000000     0.794830000000     0.10121    
C154     C      0.299300000000     0.265700000000     0.835950000000     0.0704119  
C155     C      0.278160000000     0.299150000000     0.750400000000    -0.0950339  
C156     C      0.233860000000     0.265410000000     0.680260000000    -0.0801993  
C157     C      0.286150000000     0.251270000000     0.791960000000    -0.0843911  
C158     C      0.259970000000     0.253180000000     0.702470000000     0.0335165  
C159     C      0.275060000000     0.268020000000     0.748800000000     0.0419957  
C160     C      0.219790000000     0.251190000000     0.636940000000     0.069963   
C161     C      0.256780000000     0.213080000000     0.636650000000     0.0701034  
C162     C      0.271380000000     0.226670000000     0.680150000000    -0.0799722  
C163     C      0.261040000000     0.293620000000     0.123830000000     0.100727   
C164     C      0.309470000000     0.286130000000     0.161140000000     0.0701471  
C165     C      0.248200000000     0.279750000000     0.169140000000    -0.094718   
C166     C      0.226610000000     0.265360000000     0.282800000000    -0.0801279  
C167     C      0.297140000000     0.272220000000     0.206450000000    -0.0843186  
C168     C      0.252660000000     0.253940000000     0.258810000000     0.0335227  
C169     C      0.266180000000     0.268820000000     0.210880000000     0.0417201  
C170     C      0.214060000000     0.250990000000     0.327550000000     0.0699489  
C171     C      0.252370000000     0.214230000000     0.325620000000     0.0700969  
C172     C      0.265570000000     0.228090000000     0.280900000000    -0.0798074  
C173     C      0.573690000000     0.319030000000     0.016270000000     0.101043   
C174     C      0.573950000000     0.320950000000     0.920250000000     0.0703499  
C175     C      0.542300000000     0.318520000000     0.015990000000    -0.0945964  
C176     C      0.476520000000     0.302580000000     0.002580000000    -0.0799587  
C177     C      0.542760000000     0.320490000000     0.919110000000    -0.084497   
C178     C      0.493230000000     0.320360000000     0.966930000000     0.0336526  
C179     C      0.526510000000     0.319550000000     0.967300000000     0.0418321  
C180     C      0.445310000000     0.304670000000     0.003240000000     0.0702467  
C181     C      0.446680000000     0.341110000000     0.933590000000     0.070229   
C182     C      0.477880000000     0.339540000000     0.931780000000    -0.0798922  
C183     C      0.297490000000     0.445140000000     0.983000000000     0.10118    
C184     C      0.345570000000     0.446640000000     0.023930000000     0.0703528  
C185     C      0.296460000000     0.476540000000     0.983340000000    -0.0950902  
C186     C      0.309320000000     0.541350000000     0.954870000000    -0.079975   
C187     C      0.344970000000     0.477870000000     0.024680000000    -0.0843523  
C188     C      0.320350000000     0.526550000000     0.000640000000     0.0335964  
C189     C      0.320490000000     0.493250000000     0.003320000000     0.0418446  
C190     C      0.310460000000     0.572580000000     0.951870000000     0.0702725  
C191     C      0.332790000000     0.575050000000     0.038590000000     0.0699983  
C192     C      0.331970000000     0.543850000000     0.042960000000    -0.0801895  
Cd1      Cd     0.336230000000     0.335810000000     0.983170000000     0.509878   
Cd2      Cd     0.329560000000     0.684090000000     0.978270000000     0.510453   
Cd3      Cd     0.684980000000     0.328690000000     0.958990000000     0.510136   
Cd4      Cd     0.677700000000     0.678090000000     0.956620000000     0.509715   
Cd5      Cd     0.837010000000     0.177500000000     0.457960000000     0.509803   
Cd6      Cd     0.827860000000     0.829880000000     0.456470000000     0.510433   
Cd7      Cd     0.175280000000     0.832820000000     0.478590000000     0.509574   
Cd8      Cd     0.186650000000     0.182330000000     0.484230000000     0.510077   
H1       H      0.150660000000     0.933370000000     0.547430000000     0.0350927  
H2       H      0.197930000000     0.082500000000     0.407190000000     0.0363779  
H3       H      0.225240000000     0.984090000000     0.432020000000     0.0556902  
H4       H      0.196900000000     0.028560000000     0.405760000000     0.0568494  
H5       H      0.154250000000     0.987560000000     0.550380000000     0.055081   
H6       H      0.188000000000     0.027330000000     0.578700000000     0.0597881  
H7       H      0.220700000000     0.929870000000     0.429460000000     0.0359594  
H8       H      0.159270000000     0.092960000000     0.619210000000     0.0479826  
H9       H      0.081840000000     0.821890000000     0.374210000000     0.0341779  
H10      H      0.924540000000     0.788320000000     0.506760000000     0.0367014  
H11      H      0.018580000000     0.818590000000     0.537770000000     0.0558688  
H12      H      0.978300000000     0.786170000000     0.510830000000     0.0564943  
H13      H      0.027960000000     0.817700000000     0.364100000000     0.0543568  
H14      H      0.983980000000     0.847210000000     0.376840000000     0.0596301  
H15      H      0.072460000000     0.821900000000     0.546280000000     0.0360848  
H16      H      0.920540000000     0.838500000000     0.304970000000     0.0446875  
H17      H      0.778610000000     0.926800000000     0.418610000000     0.0354928  
H18      H      0.830000000000     0.080650000000     0.546730000000     0.0362374  
H19      H      0.852850000000     0.983830000000     0.524270000000     0.0554552  
H20      H      0.825630000000     0.027070000000     0.553050000000     0.0563306  
H21      H      0.775890000000     0.981160000000     0.419140000000     0.0553361  
H22      H      0.803310000000     0.022730000000     0.384300000000     0.0597156  
H23      H      0.854270000000     0.929650000000     0.524120000000     0.0352487  
H24      H      0.828720000000     0.084110000000     0.323330000000     0.0482994  
H25      H      0.932670000000     0.221590000000     0.519090000000     0.0350387  
H26      H      0.089780000000     0.180790000000     0.395300000000     0.0358978  
H27      H      0.993780000000     0.150640000000     0.412880000000     0.0552919  
H28      H      0.036130000000     0.181170000000     0.387990000000     0.0563939  
H29      H      0.986840000000     0.224810000000     0.524250000000     0.0548252  
H30      H      0.028860000000     0.197180000000     0.558830000000     0.059479   
H31      H      0.939670000000     0.148560000000     0.407720000000     0.03469    
H32      H      0.092610000000     0.230570000000     0.598810000000     0.0468788  
H33      H      0.741120000000     0.806500000000     0.572170000000     0.0344583  
H34      H      0.748310000000     0.690870000000     0.809360000000     0.0366874  
H35      H      0.802830000000     0.757460000000     0.711600000000     0.0555488  
H36      H      0.771990000000     0.714770000000     0.733540000000     0.0567344  
H37      H      0.716510000000     0.783330000000     0.649040000000     0.0544988  
H38      H      0.709790000000     0.787970000000     0.745310000000     0.059499   
H39      H      0.826600000000     0.780210000000     0.633610000000     0.036021   
H40      H      0.647640000000     0.762360000000     0.806490000000     0.0461732  
H41      H      0.688170000000     0.700720000000     0.150580000000     0.0357036  
H42      H      0.796030000000     0.820310000000     0.269140000000     0.0360202  
H43      H      0.783630000000     0.754770000000     0.126320000000     0.0556228  
H44      H      0.773600000000     0.796920000000     0.191310000000     0.0570745  
H45      H      0.712200000000     0.723000000000     0.228860000000     0.0554531  
H46      H      0.758820000000     0.716650000000     0.283250000000     0.0599441  
H47      H      0.759020000000     0.732210000000     0.048820000000     0.0349184  
H48      H      0.755780000000     0.735810000000     0.414180000000     0.0463663  
H49      H      0.759470000000     0.323530000000     0.812230000000     0.0350698  
H50      H      0.790610000000     0.180870000000     0.635690000000     0.036375   
H51      H      0.721880000000     0.226850000000     0.743290000000     0.0554445  
H52      H      0.767790000000     0.202980000000     0.714280000000     0.0565739  
H53      H      0.783590000000     0.301090000000     0.734170000000     0.0555247  
H54      H      0.773840000000     0.289950000000     0.640510000000     0.0595789  
H55      H      0.698740000000     0.249610000000     0.822020000000     0.0353515  
H56      H      0.776970000000     0.280310000000     0.506680000000     0.0461497  
H57      H      0.839100000000     0.230440000000     0.283460000000     0.0349385  
H58      H      0.700780000000     0.249170000000     0.090980000000     0.0353413  
H59      H      0.729240000000     0.228930000000     0.263560000000     0.0550796  
H60      H      0.723790000000     0.224120000000     0.166400000000     0.0562909  
H61      H      0.816800000000     0.253660000000     0.204610000000     0.0553527  
H62      H      0.786550000000     0.296580000000     0.182080000000     0.0594043  
H63      H      0.752360000000     0.205350000000     0.341300000000     0.0347726  
H64      H      0.755830000000     0.357660000000     0.127120000000     0.0467906  
H65      H      0.679620000000     0.579180000000     0.044030000000     0.0351639  
H66      H      0.672930000000     0.428590000000     0.883300000000     0.0357378  
H67      H      0.705350000000     0.525610000000     0.875730000000     0.055125   
H68      H      0.673410000000     0.482470000000     0.882000000000     0.0565595  
H69      H      0.682020000000     0.524950000000     0.045120000000     0.05545    
H70      H      0.715590000000     0.483330000000     0.038010000000     0.0593124  
H71      H      0.701910000000     0.579880000000     0.875830000000     0.035493   
H72      H      0.751410000000     0.417750000000     0.052060000000     0.0454619  
H73      H      0.258080000000     0.820090000000     0.608550000000     0.0347719  
H74      H      0.268310000000     0.687810000000     0.816330000000     0.0368551  
H75      H      0.204670000000     0.742450000000     0.712870000000     0.0555511  
H76      H      0.244970000000     0.709600000000     0.738200000000     0.0566457  
H77      H      0.282470000000     0.797930000000     0.686410000000     0.054753   
H78      H      0.278960000000     0.796150000000     0.783380000000     0.0595641  
H79      H      0.181320000000     0.764540000000     0.634070000000     0.0358373  
H80      H      0.339670000000     0.785860000000     0.860960000000     0.0465583  
H81      H      0.247700000000     0.693820000000     0.111000000000     0.0347857  
H82      H      0.227380000000     0.830090000000     0.306470000000     0.0369195  
H83      H      0.295630000000     0.778400000000     0.205860000000     0.0559718  
H84      H      0.250980000000     0.808260000000     0.228330000000     0.0569308  
H85      H      0.222670000000     0.715780000000     0.188750000000     0.0549756  
H86      H      0.229410000000     0.720230000000     0.286890000000     0.0598409  
H87      H      0.319850000000     0.756150000000     0.127700000000     0.0359516  
H88      H      0.169570000000     0.726750000000     0.368480000000     0.0462285  
H89      H      0.576790000000     0.653470000000     0.891590000000     0.0346982  
H90      H      0.431080000000     0.699650000000     0.042760000000     0.0366295  
H91      H      0.527430000000     0.729510000000     0.005960000000     0.05539    
H92      H      0.484860000000     0.700520000000     0.038350000000     0.0569675  
H93      H      0.522620000000     0.656290000000     0.892290000000     0.0556902  
H94      H      0.481010000000     0.688140000000     0.866240000000     0.0593349  
H95      H      0.581660000000     0.725700000000     0.005000000000     0.0354662  
H96      H      0.414400000000     0.714060000000     0.824930000000     0.0447375  
H97      H      0.199560000000     0.261320000000     0.621110000000     0.0347898  
H98      H      0.307100000000     0.251570000000     0.868670000000     0.0358389  
H99      H      0.291670000000     0.216630000000     0.695740000000     0.0556569  
H100     H      0.284080000000     0.227090000000     0.792490000000     0.056909   
H101     H      0.224050000000     0.285660000000     0.696730000000     0.054942   
H102     H      0.270370000000     0.312580000000     0.716740000000     0.0597093  
H103     H      0.266370000000     0.192640000000     0.620430000000     0.0356094  
H104     H      0.269570000000     0.365550000000     0.812790000000     0.0486965  
H105     H      0.193930000000     0.260590000000     0.344940000000     0.0350572  
H106     H      0.333660000000     0.288100000000     0.160010000000     0.0366181  
H107     H      0.285520000000     0.218310000000     0.263270000000     0.0558352  
H108     H      0.311900000000     0.264450000000     0.238180000000     0.0566517  
H109     H      0.216110000000     0.285510000000     0.267500000000     0.0546714  
H110     H      0.224100000000     0.277160000000     0.171410000000     0.0596845  
H111     H      0.262960000000     0.194190000000     0.341310000000     0.0357374  
H112     H      0.227730000000     0.335690000000     0.086340000000     0.0446257  
H113     H      0.433210000000     0.290730000000     0.031760000000     0.0357754  
H114     H      0.585320000000     0.321920000000     0.881510000000     0.0362452  
H115     H      0.489910000000     0.353890000000     0.903910000000     0.0556888  
H116     H      0.531460000000     0.320810000000     0.880420000000     0.0566551  
H117     H      0.487440000000     0.287100000000     0.029860000000     0.0550289  
H118     H      0.530210000000     0.317900000000     0.054010000000     0.0599416  
H119     H      0.435700000000     0.356590000000     0.906290000000     0.0353946  
H120     H      0.595510000000     0.287570000000     0.093750000000     0.0460607  
H121     H      0.302000000000     0.583110000000     0.915490000000     0.0359993  
H122     H      0.365480000000     0.435960000000     0.039890000000     0.0357345  
H123     H      0.340350000000     0.533400000000     0.079410000000     0.0550084  
H124     H      0.364150000000     0.489850000000     0.040440000000     0.0566464  
H125     H      0.300480000000     0.528900000000     0.920880000000     0.0558429  
H126     H      0.276740000000     0.487920000000     0.968230000000     0.0593514  
H127     H      0.342120000000     0.587600000000     0.072100000000     0.0350599  
H128     H      0.245850000000     0.421830000000     0.001390000000     0.043692   
N1       N      0.192780000000     0.086780000000     0.493360000000    -0.181883   
N2       N      0.185310000000     0.927730000000     0.488090000000    -0.178333   
N3       N      0.922540000000     0.819220000000     0.440110000000    -0.181819   
N4       N      0.081000000000     0.822380000000     0.460910000000    -0.178772   
N5       N      0.819410000000     0.083350000000     0.462030000000    -0.18182    
N6       N      0.816810000000     0.924340000000     0.470810000000    -0.17876    
N7       N      0.091080000000     0.188790000000     0.481070000000    -0.181883   
N8       N      0.932270000000     0.184820000000     0.463190000000    -0.179173   
N9       N      0.714920000000     0.724980000000     0.821880000000    -0.181704   
N10      N      0.785580000000     0.794840000000     0.597140000000    -0.1784     
N11      N      0.790520000000     0.782460000000     0.322140000000    -0.182289   
N12      N      0.721810000000     0.714930000000     0.094100000000    -0.178755   
N13      N      0.796110000000     0.222240000000     0.592070000000    -0.181811   
N14      N      0.727370000000     0.288220000000     0.822700000000    -0.178914   
N15      N      0.730190000000     0.287360000000     0.091600000000    -0.181813   
N16      N      0.797350000000     0.216330000000     0.318140000000    -0.178991   
N17      N      0.693070000000     0.424160000000     0.961810000000    -0.182065   
N18      N      0.690320000000     0.583420000000     0.959790000000    -0.178607   
N19      N      0.287820000000     0.728850000000     0.845480000000    -0.181824   
N20      N      0.217980000000     0.793920000000     0.615680000000    -0.178852   
N21      N      0.214420000000     0.788200000000     0.342810000000    -0.181733   
N22      N      0.285550000000     0.723380000000     0.113780000000    -0.178626   
N23      N      0.424290000000     0.692540000000     0.957600000000    -0.182253   
N24      N      0.583110000000     0.689170000000     0.948610000000    -0.179122   
N25      N      0.301740000000     0.296430000000     0.838290000000    -0.181911   
N26      N      0.231180000000     0.225240000000     0.615330000000    -0.178516   
N27      N      0.291880000000     0.296680000000     0.119690000000    -0.181913   
N28      N      0.226810000000     0.225590000000     0.348670000000    -0.178435   
N29      N      0.589590000000     0.320720000000     0.968140000000    -0.181973   
N30      N      0.430570000000     0.324080000000     0.969520000000    -0.178237   
N31      N      0.322570000000     0.430160000000     0.001950000000    -0.182306   
N32      N      0.322360000000     0.589250000000     0.993180000000    -0.178387   
O1       O      0.334120000000     0.312770000000     0.073870000000    -0.245982   
O2       O      0.315660000000     0.336980000000     0.891350000000    -0.245687   
O3       O      0.384510000000     0.312220000000     0.006100000000    -0.244106   
O4       O      0.348750000000     0.386290000000     0.017590000000    -0.25137    
O5       O      0.308150000000     0.382920000000     0.972690000000    -0.245517   
O6       O      0.385870000000     0.345440000000     0.943330000000    -0.249475   
O7       O      0.292060000000     0.318790000000     0.034690000000    -0.250774   
O8       O      0.322640000000     0.293210000000     0.923710000000    -0.251451   
O9       O      0.288200000000     0.689200000000     0.043900000000    -0.252024   
O10      O      0.318150000000     0.727940000000     0.921620000000    -0.250751   
O11      O      0.335690000000     0.635870000000     0.025530000000    -0.250481   
O12      O      0.381060000000     0.694060000000     0.009170000000    -0.24623    
O13      O      0.376300000000     0.683850000000     0.925310000000    -0.25159    
O14      O      0.314990000000     0.633640000000     0.947340000000    -0.243636   
O15      O      0.324780000000     0.720000000000     0.053340000000    -0.24576    
O16      O      0.297230000000     0.686960000000     0.897840000000    -0.244121   
O17      O      0.634270000000     0.323510000000     0.920970000000    -0.248644   
O18      O      0.696740000000     0.377120000000     0.001170000000    -0.244488   
O19      O      0.692180000000     0.288780000000     0.891050000000    -0.24973    
O20      O      0.692740000000     0.288900000000     0.027070000000    -0.248216   
O21      O      0.724440000000     0.324760000000     0.027300000000    -0.244963   
O22      O      0.722180000000     0.326200000000     0.885300000000    -0.25074    
O23      O      0.636730000000     0.324530000000     0.007120000000    -0.248337   
O24      O      0.681710000000     0.379360000000     0.919360000000    -0.248593   
O25      O      0.690310000000     0.629070000000     0.916030000000    -0.244985   
O26      O      0.629840000000     0.702700000000     0.979800000000    -0.247092   
O27      O      0.713380000000     0.685380000000     0.882120000000    -0.2439     
O28      O      0.719150000000     0.703900000000     0.003160000000    -0.251652   
O29      O      0.682570000000     0.690000000000     0.053610000000    -0.245058   
O30      O      0.679950000000     0.719370000000     0.890850000000    -0.249541   
O31      O      0.680370000000     0.628730000000     0.000930000000    -0.250643   
O32      O      0.627240000000     0.666460000000     0.922880000000    -0.253166   
O33      O      0.833150000000     0.128170000000     0.501950000000    -0.245607   
O34      O      0.884840000000     0.199760000000     0.488760000000    -0.250385   
O35      O      0.812380000000     0.179770000000     0.547080000000    -0.245994   
O36      O      0.794640000000     0.190930000000     0.399180000000    -0.249534   
O37      O      0.838170000000     0.204060000000     0.370670000000    -0.250638   
O38      O      0.819320000000     0.221860000000     0.507950000000    -0.247593   
O39      O      0.820920000000     0.129460000000     0.418540000000    -0.24792    
O40      O      0.888520000000     0.163700000000     0.431820000000    -0.251944   
O41      O      0.827260000000     0.805340000000     0.545390000000    -0.243559   
O42      O      0.809970000000     0.824980000000     0.362490000000    -0.247506   
O43      O      0.876810000000     0.807470000000     0.478760000000    -0.243738   
O44      O      0.839560000000     0.879680000000     0.493020000000    -0.252091   
O45      O      0.802430000000     0.878060000000     0.438110000000    -0.246177   
O46      O      0.876740000000     0.838800000000     0.413560000000    -0.249127   
O47      O      0.784450000000     0.819530000000     0.515250000000    -0.25096    
O48      O      0.808020000000     0.785230000000     0.410300000000    -0.251832   
O49      O      0.128620000000     0.827780000000     0.425860000000    -0.252487   
O50      O      0.198560000000     0.881280000000     0.454680000000    -0.243325   
O51      O      0.200560000000     0.830660000000     0.390320000000    -0.24381    
O52      O      0.178720000000     0.798270000000     0.555900000000    -0.246738   
O53      O      0.216720000000     0.826920000000     0.543920000000    -0.252878   
O54      O      0.190360000000     0.788300000000     0.426190000000    -0.249579   
O55      O      0.123830000000     0.826440000000     0.512200000000    -0.244657   
O56      O      0.163280000000     0.883160000000     0.513610000000    -0.250987   
O57      O      0.194440000000     0.131630000000     0.446450000000    -0.246911   
O58      O      0.136960000000     0.190700000000     0.525110000000    -0.246017   
O59      O      0.224930000000     0.188020000000     0.412710000000    -0.246925   
O60      O      0.226920000000     0.187690000000     0.551660000000    -0.24871    
O61      O      0.193060000000     0.221860000000     0.552850000000    -0.247983   
O62      O      0.190510000000     0.221610000000     0.414690000000    -0.249603   
O63      O      0.186800000000     0.133940000000     0.531600000000    -0.248933   
O64      O      0.137210000000     0.181910000000     0.440250000000    -0.249714   
S1       S      0.188600000000     0.087790000000     0.605910000000    -0.0221585  
S2       S      0.924370000000     0.856350000000     0.349500000000    -0.0213326  
S3       S      0.802950000000     0.082550000000     0.353300000000    -0.0228133  
S4       S      0.088210000000     0.200430000000     0.591790000000    -0.0222242  
S5       S      0.673410000000     0.771420000000     0.831590000000    -0.0222809  
S6       S      0.781360000000     0.731210000000     0.384680000000    -0.0226794  
S7       S      0.800690000000     0.277920000000     0.541430000000    -0.0218444  
S8       S      0.770190000000     0.335270000000     0.099420000000    -0.0233137  
S9       S      0.721640000000     0.422740000000     0.061930000000    -0.023799   
S10      S      0.310460000000     0.784330000000     0.877720000000    -0.0233391  
S11      S      0.198760000000     0.731840000000     0.382650000000    -0.0222464  
S12      S      0.419820000000     0.686140000000     0.845750000000    -0.0227274  
S13      S      0.294590000000     0.352680000000     0.790610000000    -0.021016   
S14      S      0.235540000000     0.306710000000     0.074650000000    -0.0229039  
S15      S      0.590650000000     0.317000000000     0.080670000000    -0.0215147  
S16      S      0.265010000000     0.426850000000     0.959040000000    -0.0233878  


