data_structure

_audit_creation_method RASPA-1.0
_audit_creation_date 2023-5-22
_audit_author_name 'Poobodin Mano'

_cell_length_a    35.2325
_cell_length_b    35.2283
_cell_length_c    35.5807
_cell_angle_alpha 90.0128
_cell_angle_beta  90.1088
_cell_angle_gamma 119.969
_cell_volume      38257.3

_symmetry_cell_setting          triclinic
_symmetry_space_group_name_Hall 'P 1'
_symmetry_space_group_name_H-M  'P 1'
_symmetry_Int_Tables_number     1

_symmetry_equiv_pos_as_xyz 'x,y,z'

loop_
_atom_site_label
_atom_site_type_symbol
_atom_site_fract_x
_atom_site_fract_y
_atom_site_fract_z
_atom_site_charge
C1       C      0.498940000000     0.442460000000     0.059740000000     0.282494   
C2       C      0.621650000000     0.441350000000     0.121820000000     0.282504   
C3       C      0.499040000000     0.442440000000     0.184570000000     0.282319   
C4       C      0.500130000000     0.319820000000     0.122380000000     0.282726   
C5       C      0.438460000000     0.502890000000     0.434450000000     0.282356   
C6       C      0.437350000000     0.625520000000     0.371850000000     0.282542   
C7       C      0.438520000000     0.502870000000     0.309620000000     0.282361   
C8       C      0.315840000000     0.503980000000     0.371960000000     0.282729   
C9       C      0.784550000000     0.441260000000     0.121340000000     0.28272    
C10      C      0.908390000000     0.442420000000     0.183690000000     0.282192   
C11      C      0.784620000000     0.319690000000     0.121290000000     0.282745   
C12      C      0.908190000000     0.442330000000     0.058860000000     0.282388   
C13      C      0.152850000000     0.625630000000     0.371710000000     0.282667   
C14      C      0.029220000000     0.502950000000     0.309130000000     0.282741   
C15      C      0.152920000000     0.504060000000     0.371830000000     0.282766   
C16      C      0.029140000000     0.502920000000     0.433970000000     0.282572   
C17      C      0.498990000000     0.033080000000     0.059570000000     0.282297   
C18      C      0.500190000000     0.156880000000     0.122310000000     0.282615   
C19      C      0.499070000000     0.033150000000     0.184410000000     0.282264   
C20      C      0.621730000000     0.156790000000     0.121700000000     0.282683   
C21      C      0.315730000000     0.788530000000     0.371740000000     0.282687   
C22      C      0.438410000000     0.912210000000     0.434250000000     0.282371   
C23      C      0.437280000000     0.788450000000     0.371750000000     0.282725   
C24      C      0.438450000000     0.912220000000     0.309410000000     0.282519   
C25      C      0.441720000000     0.987280000000     0.231670000000    -0.00667538 
C26      C      0.483580000000     0.002220000000     0.216390000000    -0.052075   
C27      C      0.510470000000     0.987320000000     0.231950000000    -0.00670275 
C28      C      0.495810000000     0.958090000000     0.262160000000    -0.00654019 
C29      C      0.453960000000     0.943150000000     0.277440000000    -0.0522775  
C30      C      0.427060000000     0.958050000000     0.261880000000    -0.00661504 
C31      C      0.441760000000     0.987460000000     0.011900000000    -0.00668333 
C32      C      0.483490000000     0.002150000000     0.027520000000    -0.0520713  
C33      C      0.510280000000     0.987030000000     0.012220000000    -0.00670642 
C34      C      0.495640000000     0.957820000000     0.481920000000    -0.00661009 
C35      C      0.453900000000     0.943120000000     0.466300000000    -0.0522194  
C36      C      0.427110000000     0.958240000000     0.481610000000    -0.00660705 
C37      C      0.209790000000     0.692060000000     0.405740000000    -0.00677965 
C38      C      0.190240000000     0.671040000000     0.371710000000    -0.0526473  
C39      C      0.209630000000     0.691950000000     0.337690000000    -0.00681419 
C40      C      0.249290000000     0.731620000000     0.337700000000    -0.00677843 
C41      C      0.270330000000     0.751140000000     0.371730000000    -0.0526905  
C42      C      0.249450000000     0.731730000000     0.405750000000    -0.00677971 
C43      C      0.728060000000     0.253330000000     0.155420000000    -0.00678407 
C44      C      0.747230000000     0.274270000000     0.121350000000    -0.0526612  
C45      C      0.727460000000     0.253290000000     0.087380000000    -0.00677959 
C46      C      0.687800000000     0.213620000000     0.087480000000    -0.00681106 
C47      C      0.667140000000     0.194170000000     0.121560000000    -0.0526563  
C48      C      0.688400000000     0.213670000000     0.155530000000    -0.00682976 
C49      C      0.954310000000     0.431050000000     0.231210000000    -0.00671478 
C50      C      0.939320000000     0.457910000000     0.215760000000    -0.0520456  
C51      C      0.954140000000     0.499710000000     0.231260000000    -0.00678275 
C52      C      0.983350000000     0.514340000000     0.261580000000    -0.00647945 
C53      C      0.998330000000     0.487480000000     0.277040000000    -0.0524693  
C54      C      0.983520000000     0.445680000000     0.261530000000    -0.00657151 
C55      C      0.953960000000     0.499630000000     0.011500000000    -0.00671459 
C56      C      0.939100000000     0.457820000000     0.026890000000    -0.0521032  
C57      C      0.954080000000     0.430950000000     0.011470000000    -0.00672812 
C58      C      0.983320000000     0.445600000000     0.481290000000    -0.00655067 
C59      C      0.998190000000     0.487420000000     0.465900000000    -0.0524035  
C60      C      0.983200000000     0.514280000000     0.481310000000    -0.00655169 
C61      C      0.446630000000     0.691770000000     0.337770000000    -0.00682612 
C62      C      0.445350000000     0.670930000000     0.371810000000    -0.052639   
C63      C      0.447020000000     0.692030000000     0.405820000000    -0.00684901 
C64      C      0.447010000000     0.731700000000     0.405790000000    -0.00672838 
C65      C      0.445310000000     0.751050000000     0.371760000000    -0.0527335  
C66      C      0.446610000000     0.731440000000     0.337740000000    -0.00676862 
C67      C      0.209910000000     0.494690000000     0.405920000000    -0.00674889 
C68      C      0.190320000000     0.496030000000     0.371880000000    -0.052711   
C69      C      0.209670000000     0.494350000000     0.337880000000    -0.00675319 
C70      C      0.249340000000     0.494330000000     0.337910000000    -0.00680415 
C71      C      0.270420000000     0.495980000000     0.371940000000    -0.0526187  
C72      C      0.249580000000     0.494670000000     0.405960000000    -0.0068433  
C73      C      0.688320000000     0.451090000000     0.155620000000    -0.00686741 
C74      C      0.667060000000     0.449340000000     0.121660000000    -0.0525688  
C75      C      0.687720000000     0.450560000000     0.087570000000    -0.00686899 
C76      C      0.727390000000     0.450540000000     0.087450000000    -0.00674856 
C77      C      0.747160000000     0.449300000000     0.121420000000    -0.0527425  
C78      C      0.727980000000     0.451060000000     0.155500000000    -0.00672162 
C79      C      0.491210000000     0.214020000000     0.156440000000    -0.00674132 
C80      C      0.492170000000     0.194280000000     0.122400000000    -0.0527475  
C81      C      0.490120000000     0.213490000000     0.088400000000    -0.00671241 
C82      C      0.490100000000     0.253170000000     0.088410000000    -0.00686023 
C83      C      0.492130000000     0.274400000000     0.122430000000    -0.0526235  
C84      C      0.491190000000     0.253700000000     0.156460000000    -0.00683334 
C85      C      0.441720000000     0.430950000000     0.012080000000    -0.0066579  
C86      C      0.483460000000     0.457930000000     0.027710000000    -0.0521843  
C87      C      0.510280000000     0.499810000000     0.012420000000    -0.00662563 
C88      C      0.495660000000     0.514420000000     0.482130000000    -0.00665589 
C89      C      0.453920000000     0.487440000000     0.466500000000    -0.0521898  
C90      C      0.427110000000     0.445560000000     0.481800000000    -0.00661526 
C91      C      0.427070000000     0.445650000000     0.262060000000    -0.00663709 
C92      C      0.454010000000     0.487410000000     0.277650000000    -0.0522134  
C93      C      0.495880000000     0.514250000000     0.262390000000    -0.00660727 
C94      C      0.510510000000     0.499640000000     0.232160000000    -0.00664665 
C95      C      0.483570000000     0.457890000000     0.216570000000    -0.0521675  
C96      C      0.441700000000     0.431050000000     0.231830000000    -0.00663437 
C97      C      0.498940000000     0.442460000000     0.559740000000     0.282525   
C98      C      0.621640000000     0.441350000000     0.621820000000     0.282892   
C99      C      0.499040000000     0.442440000000     0.684570000000     0.282377   
C100     C      0.500130000000     0.319820000000     0.622380000000     0.282749   
C101     C      0.438460000000     0.502890000000     0.934450000000     0.282288   
C102     C      0.437350000000     0.625520000000     0.871850000000     0.282544   
C103     C      0.438520000000     0.502870000000     0.809620000000     0.282478   
C104     C      0.315840000000     0.503980000000     0.871960000000     0.282734   
C105     C      0.784550000000     0.441260000000     0.621340000000     0.28275    
C106     C      0.908390000000     0.442420000000     0.683690000000     0.282342   
C107     C      0.784620000000     0.319690000000     0.621290000000     0.282744   
C108     C      0.908190000000     0.442330000000     0.558860000000     0.282406   
C109     C      0.152850000000     0.625630000000     0.871710000000     0.282665   
C110     C      0.029220000000     0.502950000000     0.809130000000     0.282586   
C111     C      0.152920000000     0.504060000000     0.871830000000     0.282766   
C112     C      0.029140000000     0.502920000000     0.933970000000     0.282571   
C113     C      0.498990000000     0.033080000000     0.559570000000     0.2823     
C114     C      0.500190000000     0.156880000000     0.622310000000     0.282561   
C115     C      0.499070000000     0.033150000000     0.684410000000     0.282313   
C116     C      0.621730000000     0.156790000000     0.621700000000     0.28268    
C117     C      0.315730000000     0.788530000000     0.871740000000     0.282689   
C118     C      0.438410000000     0.912210000000     0.934240000000     0.282459   
C119     C      0.437280000000     0.788450000000     0.871750000000     0.282722   
C120     C      0.438450000000     0.912210000000     0.809410000000     0.282575   
C121     C      0.441720000000     0.987280000000     0.731670000000    -0.00663393 
C122     C      0.483580000000     0.002220000000     0.716380000000    -0.052156   
C123     C      0.510470000000     0.987330000000     0.731950000000    -0.00663948 
C124     C      0.495810000000     0.958090000000     0.762160000000    -0.00658469 
C125     C      0.453960000000     0.943150000000     0.777440000000    -0.0522388  
C126     C      0.427060000000     0.958050000000     0.761880000000    -0.00664353 
C127     C      0.441760000000     0.987450000000     0.511910000000    -0.00668526 
C128     C      0.483490000000     0.002150000000     0.527520000000    -0.0520793  
C129     C      0.510280000000     0.987040000000     0.512220000000    -0.00668643 
C130     C      0.495640000000     0.957820000000     0.981920000000    -0.00660528 
C131     C      0.453900000000     0.943120000000     0.966300000000    -0.0521986  
C132     C      0.427110000000     0.958240000000     0.981610000000    -0.0066105  
C133     C      0.209790000000     0.692060000000     0.905740000000    -0.00678334 
C134     C      0.190240000000     0.671040000000     0.871710000000    -0.0526412  
C135     C      0.209620000000     0.691950000000     0.837690000000    -0.00682494 
C136     C      0.249280000000     0.731620000000     0.837700000000    -0.00676704 
C137     C      0.270330000000     0.751140000000     0.871730000000    -0.0526969  
C138     C      0.249450000000     0.731730000000     0.905750000000    -0.00677555 
C139     C      0.728060000000     0.253330000000     0.655420000000    -0.00676618 
C140     C      0.747230000000     0.274270000000     0.621360000000    -0.0526605  
C141     C      0.727460000000     0.253290000000     0.587380000000    -0.00679717 
C142     C      0.687800000000     0.213620000000     0.587480000000    -0.00680481 
C143     C      0.667140000000     0.194170000000     0.621560000000    -0.0526544  
C144     C      0.688400000000     0.213670000000     0.655530000000    -0.00683646 
C145     C      0.954310000000     0.431050000000     0.731210000000    -0.0066728  
C146     C      0.939320000000     0.457910000000     0.715760000000    -0.0521265  
C147     C      0.954140000000     0.499710000000     0.731260000000    -0.00670098 
C148     C      0.983340000000     0.514340000000     0.761580000000    -0.00659243 
C149     C      0.998330000000     0.487480000000     0.777040000000    -0.0523692  
C150     C      0.983520000000     0.445680000000     0.761530000000    -0.0066265  
C151     C      0.953960000000     0.499630000000     0.511500000000    -0.00671419 
C152     C      0.939100000000     0.457820000000     0.526890000000    -0.0521069  
C153     C      0.954080000000     0.430950000000     0.511480000000    -0.00674931 
C154     C      0.983320000000     0.445600000000     0.981290000000    -0.00656088 
C155     C      0.998190000000     0.487420000000     0.965900000000    -0.0523995  
C156     C      0.983200000000     0.514280000000     0.981310000000    -0.006553   
C157     C      0.446630000000     0.691770000000     0.837770000000    -0.00682127 
C158     C      0.445350000000     0.670930000000     0.871810000000    -0.0526389  
C159     C      0.447030000000     0.692030000000     0.905820000000    -0.00685236 
C160     C      0.447010000000     0.731700000000     0.905790000000    -0.00673014 
C161     C      0.445310000000     0.751050000000     0.871760000000    -0.0527251  
C162     C      0.446610000000     0.731450000000     0.837740000000    -0.00678288 
C163     C      0.209910000000     0.494690000000     0.905920000000    -0.00675097 
C164     C      0.190320000000     0.496030000000     0.871880000000    -0.0527092  
C165     C      0.209670000000     0.494350000000     0.837880000000    -0.00675678 
C166     C      0.249340000000     0.494330000000     0.837910000000    -0.00679496 
C167     C      0.270420000000     0.495980000000     0.871940000000    -0.052626   
C168     C      0.249580000000     0.494670000000     0.905960000000    -0.0068401  
C169     C      0.688320000000     0.451090000000     0.655620000000    -0.00684598 
C170     C      0.667060000000     0.449340000000     0.621660000000    -0.0526413  
C171     C      0.687720000000     0.450560000000     0.587570000000    -0.00683532 
C172     C      0.727390000000     0.450540000000     0.587450000000    -0.00676015 
C173     C      0.747160000000     0.449290000000     0.621430000000    -0.0527794  
C174     C      0.727980000000     0.451060000000     0.655500000000    -0.00670061 
C175     C      0.491210000000     0.214020000000     0.656440000000    -0.00674748 
C176     C      0.492170000000     0.194280000000     0.622400000000    -0.0527316  
C177     C      0.490120000000     0.213490000000     0.588400000000    -0.00672285 
C178     C      0.490100000000     0.253170000000     0.588410000000    -0.00685306 
C179     C      0.492130000000     0.274400000000     0.622430000000    -0.0526278  
C180     C      0.491190000000     0.253700000000     0.656460000000    -0.00683397 
C181     C      0.441720000000     0.430960000000     0.512080000000    -0.00661645 
C182     C      0.483460000000     0.457920000000     0.527710000000    -0.0522313  
C183     C      0.510280000000     0.499810000000     0.512420000000    -0.00662577 
C184     C      0.495660000000     0.514420000000     0.982130000000    -0.00668397 
C185     C      0.453930000000     0.487440000000     0.966510000000    -0.0520977  
C186     C      0.427110000000     0.445560000000     0.981800000000    -0.00663879 
C187     C      0.427070000000     0.445650000000     0.762060000000    -0.00661238 
C188     C      0.454010000000     0.487410000000     0.777650000000    -0.0522609  
C189     C      0.495880000000     0.514250000000     0.762380000000    -0.00656875 
C190     C      0.510520000000     0.499650000000     0.732160000000    -0.00665976 
C191     C      0.483580000000     0.457890000000     0.716560000000    -0.0522315  
C192     C      0.441700000000     0.431050000000     0.731830000000    -0.00662532 
Cd1      Cd     0.529150000000     0.412320000000     0.122150000000     0.509735   
Cd2      Cd     0.408340000000     0.533010000000     0.371960000000     0.509759   
Cd3      Cd     0.848030000000     0.412200000000     0.121230000000     0.509703   
Cd4      Cd     0.089440000000     0.533110000000     0.371690000000     0.509769   
Cd5      Cd     0.529230000000     0.093380000000     0.122030000000     0.509721   
Cd6      Cd     0.408240000000     0.851950000000     0.371760000000     0.509753   
Cd7      Cd     0.529150000000     0.412320000000     0.622150000000     0.509762   
Cd8      Cd     0.408330000000     0.533010000000     0.871960000000     0.509761   
Cd9      Cd     0.848030000000     0.412200000000     0.621230000000     0.509728   
Cd10     Cd     0.089440000000     0.533110000000     0.871690000000     0.509755   
Cd11     Cd     0.529220000000     0.093380000000     0.622030000000     0.509728   
Cd12     Cd     0.408240000000     0.851950000000     0.871760000000     0.509752   
H1       H      0.420210000000     0.998160000000     0.220300000000     0.0578462  
H2       H      0.542900000000     0.998230000000     0.220800000000     0.0578636  
H3       H      0.517320000000     0.947210000000     0.273530000000     0.0578172  
H4       H      0.394640000000     0.947140000000     0.273030000000     0.0578515  
H5       H      0.420340000000     0.998510000000     0.023070000000     0.0578773  
H6       H      0.542610000000     0.997760000000     0.023630000000     0.0578613  
H7       H      0.517060000000     0.946770000000     0.470760000000     0.0578508  
H8       H      0.394780000000     0.947520000000     0.470200000000     0.0578433  
H9       H      0.195550000000     0.676890000000     0.432440000000     0.0575282  
H10      H      0.195260000000     0.676700000000     0.311000000000     0.0575474  
H11      H      0.264430000000     0.745880000000     0.311010000000     0.057534   
H12      H      0.264720000000     0.746070000000     0.432450000000     0.057525   
H13      H      0.742600000000     0.268560000000     0.182080000000     0.0575229  
H14      H      0.741520000000     0.268480000000     0.060650000000     0.0575163  
H15      H      0.672350000000     0.199300000000     0.060830000000     0.0575207  
H16      H      0.673430000000     0.199380000000     0.182260000000     0.057546   
H17      H      0.943490000000     0.398670000000     0.219890000000     0.0578655  
H18      H      0.943190000000     0.521180000000     0.219980000000     0.0578802  
H19      H      0.994160000000     0.546720000000     0.272900000000     0.0577667  
H20      H      0.994460000000     0.424210000000     0.272810000000     0.0578041  
H21      H      0.943020000000     0.521110000000     0.022750000000     0.0578515  
H22      H      0.943240000000     0.398560000000     0.022710000000     0.0578538  
H23      H      0.994260000000     0.424120000000     0.470040000000     0.0577824  
H24      H      0.994050000000     0.546680000000     0.470080000000     0.0577774  
H25      H      0.445580000000     0.676460000000     0.311090000000     0.0575329  
H26      H      0.446280000000     0.676920000000     0.432520000000     0.0575496  
H27      H      0.446250000000     0.746110000000     0.432480000000     0.0575106  
H28      H      0.445550000000     0.745650000000     0.311040000000     0.0575207  
H29      H      0.195700000000     0.495730000000     0.432600000000     0.0575261  
H30      H      0.195270000000     0.495130000000     0.311170000000     0.057536   
H31      H      0.264450000000     0.495100000000     0.311220000000     0.0575379  
H32      H      0.264890000000     0.495700000000     0.432660000000     0.0575456  
H33      H      0.673340000000     0.450400000000     0.182360000000     0.0575509  
H34      H      0.672280000000     0.449460000000     0.060930000000     0.0575418  
H35      H      0.741460000000     0.449420000000     0.060720000000     0.0575138  
H36      H      0.742520000000     0.450350000000     0.182160000000     0.0575053  
H37      H      0.492540000000     0.199920000000     0.183120000000     0.0575054  
H38      H      0.490610000000     0.198970000000     0.061690000000     0.0575235  
H39      H      0.490580000000     0.268170000000     0.061720000000     0.0575638  
H40      H      0.492510000000     0.269120000000     0.183150000000     0.0575345  
H41      H      0.420290000000     0.398510000000     0.023230000000     0.057883   
H42      H      0.542610000000     0.521370000000     0.023830000000     0.0578465  
H43      H      0.517100000000     0.546860000000     0.470980000000     0.0578665  
H44      H      0.394770000000     0.424000000000     0.470380000000     0.0578482  
H45      H      0.394630000000     0.424200000000     0.273190000000     0.0578694  
H46      H      0.517420000000     0.546600000000     0.273780000000     0.0578349  
H47      H      0.542950000000     0.521100000000     0.221020000000     0.0578568  
H48      H      0.420170000000     0.398700000000     0.220440000000     0.0578497  
H49      H      0.420210000000     0.998160000000     0.720300000000     0.0578364  
H50      H      0.542900000000     0.998230000000     0.720800000000     0.057847   
H51      H      0.517320000000     0.947210000000     0.773530000000     0.0578285  
H52      H      0.394640000000     0.947140000000     0.773030000000     0.0578599  
H53      H      0.420340000000     0.998500000000     0.523070000000     0.0578755  
H54      H      0.542610000000     0.997760000000     0.523630000000     0.0578538  
H55      H      0.517060000000     0.946770000000     0.970760000000     0.0578518  
H56      H      0.394780000000     0.947520000000     0.970200000000     0.0578467  
H57      H      0.195550000000     0.676890000000     0.932440000000     0.0575296  
H58      H      0.195260000000     0.676700000000     0.811000000000     0.0575508  
H59      H      0.264430000000     0.745880000000     0.811010000000     0.0575298  
H60      H      0.264720000000     0.746070000000     0.932450000000     0.0575248  
H61      H      0.742600000000     0.268560000000     0.682080000000     0.0575214  
H62      H      0.741520000000     0.268480000000     0.560650000000     0.0575183  
H63      H      0.672350000000     0.199300000000     0.560830000000     0.0575192  
H64      H      0.673430000000     0.199380000000     0.682260000000     0.0575482  
H65      H      0.943490000000     0.398670000000     0.719900000000     0.0578483  
H66      H      0.943190000000     0.521180000000     0.719980000000     0.0578628  
H67      H      0.994160000000     0.546710000000     0.772900000000     0.0578046  
H68      H      0.994460000000     0.424210000000     0.772810000000     0.0578185  
H69      H      0.943020000000     0.521110000000     0.522750000000     0.0578509  
H70      H      0.943230000000     0.398560000000     0.522710000000     0.0578605  
H71      H      0.994260000000     0.424120000000     0.970040000000     0.0577844  
H72      H      0.994050000000     0.546680000000     0.970080000000     0.057778   
H73      H      0.445580000000     0.676460000000     0.811090000000     0.0575313  
H74      H      0.446280000000     0.676920000000     0.932520000000     0.0575516  
H75      H      0.446250000000     0.746110000000     0.932480000000     0.0575119  
H76      H      0.445550000000     0.745650000000     0.811040000000     0.0575258  
H77      H      0.195700000000     0.495730000000     0.932600000000     0.0575269  
H78      H      0.195270000000     0.495130000000     0.811170000000     0.0575372  
H79      H      0.264450000000     0.495090000000     0.811220000000     0.0575358  
H80      H      0.264890000000     0.495700000000     0.932660000000     0.0575449  
H81      H      0.673340000000     0.450400000000     0.682360000000     0.0575449  
H82      H      0.672280000000     0.449460000000     0.560930000000     0.0575322  
H83      H      0.741460000000     0.449420000000     0.560720000000     0.0575168  
H84      H      0.742520000000     0.450350000000     0.682160000000     0.0575019  
H85      H      0.492540000000     0.199920000000     0.683120000000     0.0575071  
H86      H      0.490610000000     0.198970000000     0.561690000000     0.0575223  
H87      H      0.490580000000     0.268170000000     0.561720000000     0.0575638  
H88      H      0.492520000000     0.269120000000     0.683150000000     0.0575346  
H89      H      0.420290000000     0.398510000000     0.523230000000     0.0578687  
H90      H      0.542610000000     0.521370000000     0.523830000000     0.057847   
H91      H      0.517100000000     0.546860000000     0.970980000000     0.0578727  
H92      H      0.394770000000     0.424000000000     0.970380000000     0.0578526  
H93      H      0.394630000000     0.424190000000     0.773190000000     0.0578583  
H94      H      0.517420000000     0.546600000000     0.773780000000     0.0578264  
H95      H      0.542950000000     0.521110000000     0.721020000000     0.0578649  
H96      H      0.420170000000     0.398700000000     0.720440000000     0.0578483  
O1       O      0.600170000000     0.435250000000     0.091710000000    -0.229786   
O2       O      0.505370000000     0.340770000000     0.092150000000    -0.22964    
O3       O      0.536370000000     0.466070000000     0.074350000000    -0.229834   
O4       O      0.536590000000     0.465910000000     0.170270000000    -0.229626   
O5       O      0.475460000000     0.405010000000     0.169970000000    -0.229824   
O6       O      0.475510000000     0.404900000000     0.074030000000    -0.229718   
O7       O      0.600740000000     0.435910000000     0.152080000000    -0.229594   
O8       O      0.506430000000     0.341250000000     0.152510000000    -0.229932   
O9       O      0.431380000000     0.604200000000     0.341690000000    -0.229742   
O10      O      0.336920000000     0.509580000000     0.341780000000    -0.229721   
O11      O      0.461930000000     0.540440000000     0.420120000000    -0.229666   
O12      O      0.400980000000     0.479390000000     0.323920000000    -0.229708   
O13      O      0.462070000000     0.540330000000     0.324190000000    -0.229766   
O14      O      0.401030000000     0.479300000000     0.419840000000    -0.229777   
O15      O      0.431780000000     0.604440000000     0.402060000000    -0.229617   
O16      O      0.337140000000     0.509920000000     0.402140000000    -0.229847   
O17      O      0.894340000000     0.465910000000     0.169240000000    -0.229624   
O18      O      0.894190000000     0.465840000000     0.073300000000    -0.22982    
O19      O      0.800200000000     0.435660000000     0.151490000000    -0.229744   
O20      O      0.800270000000     0.340910000000     0.151450000000    -0.229796   
O21      O      0.799780000000     0.340850000000     0.091090000000    -0.229823   
O22      O      0.799740000000     0.435290000000     0.091130000000    -0.229769   
O23      O      0.894480000000     0.404920000000     0.169210000000    -0.229607   
O24      O      0.894310000000     0.404850000000     0.073290000000    -0.229818   
O25      O      0.043090000000     0.540420000000     0.323640000000    -0.22978    
O26      O      0.043160000000     0.479420000000     0.419540000000    -0.229762   
O27      O      0.137390000000     0.604380000000     0.341530000000    -0.229766   
O28      O      0.137390000000     0.509680000000     0.341620000000    -0.229743   
O29      O      0.137610000000     0.510000000000     0.401980000000    -0.229786   
O30      O      0.137500000000     0.604480000000     0.401890000000    -0.229711   
O31      O      0.043250000000     0.479460000000     0.323590000000    -0.229762   
O32      O      0.043070000000     0.540420000000     0.419560000000    -0.229732   
O33      O      0.505430000000     0.141170000000     0.092070000000    -0.229576   
O34      O      0.600830000000     0.141320000000     0.151960000000    -0.22965    
O35      O      0.475580000000     0.047260000000     0.073880000000    -0.229584   
O36      O      0.475520000000     0.047060000000     0.169830000000    -0.22981    
O37      O      0.536610000000     0.047150000000     0.170100000000    -0.229607   
O38      O      0.536410000000     0.046830000000     0.074190000000    -0.229762   
O39      O      0.506510000000     0.141730000000     0.152430000000    -0.22981    
O40      O      0.600250000000     0.141430000000     0.091600000000    -0.229912   
O41      O      0.400980000000     0.898410000000     0.419650000000    -0.229756   
O42      O      0.461960000000     0.898250000000     0.323950000000    -0.229858   
O43      O      0.337000000000     0.803980000000     0.401920000000    -0.229811   
O44      O      0.431670000000     0.803990000000     0.401930000000    -0.229704   
O45      O      0.431330000000     0.803760000000     0.341570000000    -0.229797   
O46      O      0.336850000000     0.803910000000     0.341560000000    -0.229705   
O47      O      0.461860000000     0.898090000000     0.419900000000    -0.229644   
O48      O      0.400930000000     0.898250000000     0.323740000000    -0.22977    
O49      O      0.600170000000     0.435250000000     0.591720000000    -0.229975   
O50      O      0.505380000000     0.340770000000     0.592150000000    -0.229653   
O51      O      0.536370000000     0.466070000000     0.574350000000    -0.229838   
O52      O      0.536590000000     0.465910000000     0.670270000000    -0.229633   
O53      O      0.475460000000     0.405010000000     0.669970000000    -0.229838   
O54      O      0.475510000000     0.404900000000     0.574030000000    -0.229729   
O55      O      0.600740000000     0.435910000000     0.652070000000    -0.229785   
O56      O      0.506430000000     0.341250000000     0.652510000000    -0.229935   
O57      O      0.431380000000     0.604200000000     0.841690000000    -0.229748   
O58      O      0.336920000000     0.509580000000     0.841780000000    -0.22974    
O59      O      0.461930000000     0.540440000000     0.920120000000    -0.229633   
O60      O      0.400980000000     0.479390000000     0.823920000000    -0.229732   
O61      O      0.462070000000     0.540320000000     0.824190000000    -0.229825   
O62      O      0.401030000000     0.479300000000     0.919840000000    -0.229756   
O63      O      0.431780000000     0.604440000000     0.902060000000    -0.229622   
O64      O      0.337140000000     0.509920000000     0.902140000000    -0.229866   
O65      O      0.894350000000     0.465910000000     0.669240000000    -0.229702   
O66      O      0.894190000000     0.465840000000     0.573300000000    -0.229818   
O67      O      0.800200000000     0.435660000000     0.651490000000    -0.229749   
O68      O      0.800260000000     0.340910000000     0.651450000000    -0.229799   
O69      O      0.799790000000     0.340850000000     0.591090000000    -0.229812   
O70      O      0.799740000000     0.435290000000     0.591130000000    -0.229778   
O71      O      0.894470000000     0.404920000000     0.669210000000    -0.22966    
O72      O      0.894300000000     0.404850000000     0.573290000000    -0.229833   
O73      O      0.043090000000     0.540420000000     0.823640000000    -0.229745   
O74      O      0.043160000000     0.479420000000     0.919540000000    -0.229762   
O75      O      0.137390000000     0.604380000000     0.841530000000    -0.229766   
O76      O      0.137390000000     0.509680000000     0.841620000000    -0.229745   
O77      O      0.137610000000     0.510000000000     0.901980000000    -0.229786   
O78      O      0.137500000000     0.604480000000     0.901890000000    -0.22971    
O79      O      0.043250000000     0.479450000000     0.823590000000    -0.229665   
O80      O      0.043070000000     0.540420000000     0.919560000000    -0.229732   
O81      O      0.505440000000     0.141170000000     0.592070000000    -0.229558   
O82      O      0.600830000000     0.141320000000     0.651960000000    -0.229635   
O83      O      0.475580000000     0.047260000000     0.573880000000    -0.229595   
O84      O      0.475520000000     0.047060000000     0.669830000000    -0.229833   
O85      O      0.536610000000     0.047150000000     0.670100000000    -0.229609   
O86      O      0.536410000000     0.046830000000     0.574190000000    -0.229752   
O87      O      0.506510000000     0.141730000000     0.652430000000    -0.229806   
O88      O      0.600250000000     0.141430000000     0.591600000000    -0.229895   
O89      O      0.400980000000     0.898410000000     0.919650000000    -0.22981    
O90      O      0.461960000000     0.898250000000     0.823950000000    -0.229923   
O91      O      0.337000000000     0.803980000000     0.901920000000    -0.229809   
O92      O      0.431670000000     0.803990000000     0.901930000000    -0.2297     
O93      O      0.431330000000     0.803760000000     0.841570000000    -0.229796   
O94      O      0.336850000000     0.803910000000     0.841560000000    -0.229708   
O95      O      0.461860000000     0.898090000000     0.919900000000    -0.229697   
O96      O      0.400930000000     0.898250000000     0.823740000000    -0.229782   


