data_structure

_audit_creation_method RASPA-1.0
_audit_creation_date 2023-5-22
_audit_author_name 'Poobodin Mano'

_cell_length_a    25.1012
_cell_length_b    29.6233
_cell_length_c    25.1012
_cell_angle_alpha 90
_cell_angle_beta  90
_cell_angle_gamma 90
_cell_volume      18664.8

_symmetry_cell_setting          triclinic
_symmetry_space_group_name_Hall 'P 1'
_symmetry_space_group_name_H-M  'P 1'
_symmetry_Int_Tables_number     1

_symmetry_equiv_pos_as_xyz 'x,y,z'

loop_
_atom_site_label
_atom_site_type_symbol
_atom_site_fract_x
_atom_site_fract_y
_atom_site_fract_z
_atom_site_charge
C1       C      0.943430000000     0.366290000000     0.943520000000     0.283221   
C2       C      0.818490000000     0.366290000000     0.818580000000     0.283258   
C3       C      0.943430000000     0.241410000000     0.818570000000     0.283315   
C4       C      0.818490000000     0.241410000000     0.943520000000     0.283166   
C5       C      0.068490000000     0.491410000000     0.068580000000     0.283269   
C6       C      0.193430000000     0.616290000000     0.068570000000     0.283172   
C7       C      0.068490000000     0.616290000000     0.193520000000     0.283129   
C8       C      0.193440000000     0.491410000000     0.193520000000     0.283204   
C9       C      0.318490000000     0.866290000000     0.818580000000     0.283175   
C10      C      0.443440000000     0.866290000000     0.943520000000     0.283122   
C11      C      0.318490000000     0.741410000000     0.943520000000     0.28313    
C12      C      0.443430000000     0.741410000000     0.818570000000     0.283127   
C13      C      0.693430000000     0.116290000000     0.068570000000     0.283235   
C14      C      0.568490000000     0.116290000000     0.193520000000     0.28313    
C15      C      0.568490000000     0.991410000000     0.068580000000     0.283031   
C16      C      0.693430000000     0.991410000000     0.193520000000     0.282884   
C17      C      0.318490000000     0.366290000000     0.318580000000     0.283334   
C18      C      0.318490000000     0.241410000000     0.443520000000     0.283168   
C19      C      0.443430000000     0.241410000000     0.318570000000     0.283166   
C20      C      0.443440000000     0.366290000000     0.443520000000     0.283177   
C21      C      0.568490000000     0.616290000000     0.693520000000     0.283132   
C22      C      0.693430000000     0.491410000000     0.693520000000     0.283253   
C23      C      0.568490000000     0.491410000000     0.568580000000     0.283291   
C24      C      0.693430000000     0.616290000000     0.568570000000     0.283237   
C25      C      0.943430000000     0.741410000000     0.318570000000     0.283276   
C26      C      0.818490000000     0.741410000000     0.443520000000     0.283126   
C27      C      0.943430000000     0.866290000000     0.443520000000     0.283172   
C28      C      0.818490000000     0.866290000000     0.318580000000     0.283313   
C29      C      0.068490000000     0.116290000000     0.693520000000     0.283128   
C30      C      0.193440000000     0.991410000000     0.693520000000     0.282841   
C31      C      0.068490000000     0.991410000000     0.568580000000     0.282796   
C32      C      0.193430000000     0.116290000000     0.568570000000     0.28317    
C33      C      0.022320000000     0.917210000000     0.454610000000    -0.00662496 
C34      C      0.975420000000     0.898290000000     0.475510000000    -0.0525845  
C35      C      0.959380000000     0.910240000000     0.527260000000    -0.00655607 
C36      C      0.989610000000     0.940480000000     0.557490000000    -0.00669909 
C37      C      0.036500000000     0.959410000000     0.536590000000    -0.0524532  
C38      C      0.052540000000     0.947460000000     0.484830000000    -0.00664804 
C39      C      0.777170000000     0.660240000000     0.552630000000    -0.00657817 
C40      C      0.725420000000     0.648290000000     0.536590000000    -0.0525909  
C41      C      0.704520000000     0.667210000000     0.489690000000    -0.00663599 
C42      C      0.734750000000     0.697460000000     0.459470000000    -0.00657619 
C43      C      0.786500000000     0.709410000000     0.475510000000    -0.0525485  
C44      C      0.807400000000     0.690480000000     0.522400000000    -0.00663188 
C45      C      0.307400000000     0.190480000000     0.522400000000    -0.00660506 
C46      C      0.286500000000     0.209410000000     0.475510000000    -0.0525615  
C47      C      0.234750000000     0.197460000000     0.459470000000    -0.00655612 
C48      C      0.204520000000     0.167210000000     0.489690000000    -0.00665102 
C49      C      0.225420000000     0.148290000000     0.536590000000    -0.0525503  
C50      C      0.277180000000     0.160240000000     0.552630000000    -0.00660085 
C51      C      0.459380000000     0.410240000000     0.527260000000    -0.00658978 
C52      C      0.475420000000     0.398290000000     0.475510000000    -0.0525782  
C53      C      0.522310000000     0.417220000000     0.454610000000    -0.0066233  
C54      C      0.552540000000     0.447460000000     0.484830000000    -0.00656802 
C55      C      0.536500000000     0.459410000000     0.536590000000    -0.0525946  
C56      C      0.489610000000     0.440480000000     0.557490000000    -0.00661067 
C57      C      0.709380000000     0.947460000000     0.277260000000    -0.00667144 
C58      C      0.725420000000     0.959410000000     0.225510000000    -0.0524711  
C59      C      0.772310000000     0.940480000000     0.204610000000    -0.00669561 
C60      C      0.802540000000     0.910240000000     0.234830000000    -0.00654204 
C61      C      0.786500000000     0.898290000000     0.286590000000    -0.0526432  
C62      C      0.739610000000     0.917210000000     0.307490000000    -0.00657801 
C63      C      0.557400000000     0.167210000000     0.272400000000    -0.00662398 
C64      C      0.536500000000     0.148290000000     0.225510000000    -0.0525417  
C65      C      0.484750000000     0.160240000000     0.209470000000    -0.00656559 
C66      C      0.454520000000     0.190480000000     0.239690000000    -0.00664148 
C67      C      0.475420000000     0.209410000000     0.286590000000    -0.0525561  
C68      C      0.527170000000     0.197460000000     0.302630000000    -0.0065859  
C69      C      0.302540000000     0.910240000000     0.734830000000    -0.00655553 
C70      C      0.286500000000     0.898290000000     0.786590000000    -0.0525884  
C71      C      0.239610000000     0.917210000000     0.807490000000    -0.00660531 
C72      C      0.209380000000     0.947460000000     0.777260000000    -0.00665408 
C73      C      0.225420000000     0.959410000000     0.725510000000    -0.0524838  
C74      C      0.272320000000     0.940480000000     0.704610000000    -0.00670343 
C75      C      0.454520000000     0.690480000000     0.739690000000    -0.00665485 
C76      C      0.475420000000     0.709410000000     0.786590000000    -0.0525515  
C77      C      0.527170000000     0.697460000000     0.802630000000    -0.00659705 
C78      C      0.557400000000     0.667210000000     0.772400000000    -0.00662467 
C79      C      0.536500000000     0.648290000000     0.725510000000    -0.0525549  
C80      C      0.484750000000     0.660240000000     0.709470000000    -0.00656579 
C81      C      0.522310000000     0.917210000000     0.954610000000    -0.0066255  
C82      C      0.475420000000     0.898290000000     0.975510000000    -0.0525804  
C83      C      0.459380000000     0.910240000000     0.027260000000    -0.00659381 
C84      C      0.489610000000     0.940480000000     0.057490000000    -0.00664843 
C85      C      0.536500000000     0.959410000000     0.036590000000    -0.0525468  
C86      C      0.552540000000     0.947460000000     0.984830000000    -0.00661393 
C87      C      0.027180000000     0.697460000000     0.302630000000    -0.00658208 
C88      C      0.975420000000     0.709410000000     0.286590000000    -0.0526065  
C89      C      0.954520000000     0.690480000000     0.239690000000    -0.0066273  
C90      C      0.984750000000     0.660240000000     0.209470000000    -0.00657912 
C91      C      0.036500000000     0.648290000000     0.225510000000    -0.0525475  
C92      C      0.057400000000     0.667210000000     0.272400000000    -0.00663134 
C93      C      0.204520000000     0.667210000000     0.989690000000    -0.00665259 
C94      C      0.225420000000     0.648290000000     0.036590000000    -0.0525634  
C95      C      0.277180000000     0.660240000000     0.052630000000    -0.00660138 
C96      C      0.307400000000     0.690480000000     0.022400000000    -0.00661891 
C97      C      0.286500000000     0.709410000000     0.975510000000    -0.0525575  
C98      C      0.234750000000     0.697460000000     0.959470000000    -0.00656709 
C99      C      0.272320000000     0.440480000000     0.204610000000    -0.00665404 
C100     C      0.225420000000     0.459410000000     0.225510000000    -0.0525661  
C101     C      0.209380000000     0.447460000000     0.277260000000    -0.00660003 
C102     C      0.239610000000     0.417220000000     0.307490000000    -0.00659165 
C103     C      0.286500000000     0.398290000000     0.286590000000    -0.0526201  
C104     C      0.302540000000     0.410240000000     0.234830000000    -0.0065439  
C105     C      0.027180000000     0.197460000000     0.802630000000    -0.00657121 
C106     C      0.975420000000     0.209410000000     0.786590000000    -0.0526114  
C107     C      0.954520000000     0.190480000000     0.739690000000    -0.00661403 
C108     C      0.984750000000     0.160240000000     0.709470000000    -0.00657856 
C109     C      0.036500000000     0.148290000000     0.725510000000    -0.052535   
C110     C      0.057400000000     0.167210000000     0.772400000000    -0.00663052 
C111     C      0.807400000000     0.190480000000     0.022400000000    -0.00661921 
C112     C      0.786500000000     0.209410000000     0.975510000000    -0.052554   
C113     C      0.734750000000     0.197460000000     0.959470000000    -0.00656506 
C114     C      0.704520000000     0.167210000000     0.989690000000    -0.00663598 
C115     C      0.725420000000     0.148290000000     0.036590000000    -0.0525783  
C116     C      0.777170000000     0.160240000000     0.052630000000    -0.00657801 
C117     C      0.739610000000     0.417220000000     0.807490000000    -0.00660785 
C118     C      0.786500000000     0.398290000000     0.786590000000    -0.0525919  
C119     C      0.802540000000     0.410240000000     0.734830000000    -0.00656894 
C120     C      0.772310000000     0.440480000000     0.704610000000    -0.00662583 
C121     C      0.725420000000     0.459410000000     0.725510000000    -0.0525687  
C122     C      0.709380000000     0.447460000000     0.777260000000    -0.00659576 
C123     C      0.959380000000     0.410240000000     0.027260000000    -0.0065754  
C124     C      0.975420000000     0.398290000000     0.975510000000    -0.052567   
C125     C      0.022320000000     0.417220000000     0.954610000000    -0.00664338 
C126     C      0.052540000000     0.447460000000     0.984830000000    -0.0065646  
C127     C      0.036500000000     0.459410000000     0.036590000000    -0.0525849  
C128     C      0.989610000000     0.440480000000     0.057490000000    -0.00661804 
Cd1      Cd     0.880960000000     0.303850000000     0.881050000000     0.509401   
Cd2      Cd     0.130960000000     0.553850000000     0.131050000000     0.509388   
Cd3      Cd     0.380960000000     0.803850000000     0.881050000000     0.50939    
Cd4      Cd     0.630960000000     0.053850000000     0.131050000000     0.509398   
Cd5      Cd     0.380960000000     0.303850000000     0.381050000000     0.509382   
Cd6      Cd     0.630960000000     0.553850000000     0.631050000000     0.50939    
Cd7      Cd     0.880960000000     0.803850000000     0.381050000000     0.509417   
Cd8      Cd     0.130960000000     0.053850000000     0.631050000000     0.509388   
H1       H      0.035730000000     0.908680000000     0.414850000000     0.0575691  
H2       H      0.923430000000     0.896230000000     0.544490000000     0.0575938  
H3       H      0.976190000000     0.949020000000     0.597250000000     0.0575699  
H4       H      0.088490000000     0.961470000000     0.467600000000     0.0575933  
H5       H      0.794400000000     0.646230000000     0.588570000000     0.0576185  
H6       H      0.664760000000     0.658680000000     0.476280000000     0.0575865  
H7       H      0.717520000000     0.711470000000     0.423520000000     0.0576116  
H8       H      0.847160000000     0.699020000000     0.535820000000     0.0575832  
H9       H      0.347160000000     0.199020000000     0.535820000000     0.0575891  
H10      H      0.217520000000     0.211470000000     0.423520000000     0.0576165  
H11      H      0.164760000000     0.158680000000     0.476280000000     0.057601   
H12      H      0.294410000000     0.146230000000     0.588570000000     0.0576347  
H13      H      0.423440000000     0.396230000000     0.544490000000     0.0576212  
H14      H      0.535730000000     0.408680000000     0.414850000000     0.0575814  
H15      H      0.588490000000     0.461470000000     0.467600000000     0.0576127  
H16      H      0.476190000000     0.449010000000     0.597250000000     0.0575786  
H17      H      0.673440000000     0.961470000000     0.294490000000     0.0576039  
H18      H      0.785730000000     0.949020000000     0.164850000000     0.0575681  
H19      H      0.838490000000     0.896230000000     0.217600000000     0.0575879  
H20      H      0.726190000000     0.908680000000     0.347250000000     0.0575541  
H21      H      0.597160000000     0.158680000000     0.285820000000     0.0575944  
H22      H      0.467520000000     0.146230000000     0.173520000000     0.0576239  
H23      H      0.414760000000     0.199020000000     0.226280000000     0.0575999  
H24      H      0.544400000000     0.211470000000     0.338570000000     0.05763    
H25      H      0.338490000000     0.896230000000     0.717600000000     0.0575929  
H26      H      0.226190000000     0.908680000000     0.847250000000     0.0575624  
H27      H      0.173440000000     0.961470000000     0.794490000000     0.0575991  
H28      H      0.285730000000     0.949020000000     0.664850000000     0.0575712  
H29      H      0.414760000000     0.699020000000     0.726280000000     0.0575897  
H30      H      0.544400000000     0.711470000000     0.838570000000     0.0576227  
H31      H      0.597160000000     0.658680000000     0.785820000000     0.0575814  
H32      H      0.467520000000     0.646230000000     0.673520000000     0.0576097  
H33      H      0.535730000000     0.908680000000     0.914850000000     0.0575662  
H34      H      0.423440000000     0.896230000000     0.044490000000     0.0576049  
H35      H      0.476190000000     0.949020000000     0.097250000000     0.0575548  
H36      H      0.588490000000     0.961470000000     0.967600000000     0.0575848  
H37      H      0.044410000000     0.711470000000     0.338570000000     0.0576138  
H38      H      0.914760000000     0.699020000000     0.226280000000     0.0575835  
H39      H      0.967520000000     0.646230000000     0.173520000000     0.0576128  
H40      H      0.097160000000     0.658680000000     0.285820000000     0.0575824  
H41      H      0.164760000000     0.658680000000     0.976280000000     0.0575881  
H42      H      0.294410000000     0.646230000000     0.088570000000     0.0576204  
H43      H      0.347160000000     0.699020000000     0.035820000000     0.0575786  
H44      H      0.217520000000     0.711470000000     0.923520000000     0.057609   
H45      H      0.285730000000     0.449010000000     0.164850000000     0.0575929  
H46      H      0.173440000000     0.461470000000     0.294490000000     0.0576239  
H47      H      0.226190000000     0.408680000000     0.347250000000     0.0575761  
H48      H      0.338490000000     0.396230000000     0.217600000000     0.0576059  
H49      H      0.044410000000     0.211470000000     0.838570000000     0.0576206  
H50      H      0.914760000000     0.199020000000     0.726280000000     0.0575936  
H51      H      0.967520000000     0.146230000000     0.673520000000     0.057627   
H52      H      0.097160000000     0.158680000000     0.785820000000     0.0575949  
H53      H      0.847160000000     0.199020000000     0.035820000000     0.0575929  
H54      H      0.717520000000     0.211470000000     0.923520000000     0.0576181  
H55      H      0.664760000000     0.158680000000     0.976280000000     0.057599   
H56      H      0.794400000000     0.146230000000     0.088570000000     0.0576325  
H57      H      0.726190000000     0.408680000000     0.847250000000     0.0575756  
H58      H      0.838490000000     0.396230000000     0.717600000000     0.0576126  
H59      H      0.785730000000     0.449010000000     0.664850000000     0.0575853  
H60      H      0.673440000000     0.461470000000     0.794490000000     0.057623   
H61      H      0.923430000000     0.396230000000     0.044490000000     0.0576152  
H62      H      0.035730000000     0.408680000000     0.914850000000     0.057589   
H63      H      0.088490000000     0.461470000000     0.967600000000     0.0576094  
H64      H      0.976190000000     0.449010000000     0.097250000000     0.057585   
O1       O      0.805010000000     0.354910000000     0.865250000000    -0.230154   
O2       O      0.865160000000     0.252780000000     0.957010000000    -0.230118   
O3       O      0.956920000000     0.354910000000     0.896850000000    -0.230126   
O4       O      0.961200000000     0.258940000000     0.860950000000    -0.229845   
O5       O      0.896770000000     0.252780000000     0.805090000000    -0.230204   
O6       O      0.901060000000     0.348760000000     0.961290000000    -0.229869   
O7       O      0.860860000000     0.348760000000     0.800810000000    -0.229872   
O8       O      0.800720000000     0.258940000000     0.901140000000    -0.229814   
O9       O      0.146760000000     0.604910000000     0.055090000000    -0.230124   
O10      O      0.151060000000     0.508940000000     0.211290000000    -0.229824   
O11      O      0.110870000000     0.508940000000     0.050810000000    -0.229842   
O12      O      0.050720000000     0.598760000000     0.151140000000    -0.229811   
O13      O      0.115160000000     0.604910000000     0.207010000000    -0.230107   
O14      O      0.055000000000     0.502780000000     0.115240000000    -0.230189   
O15      O      0.211200000000     0.598760000000     0.110950000000    -0.229815   
O16      O      0.206920000000     0.502780000000     0.146850000000    -0.23014    
O17      O      0.456920000000     0.854910000000     0.896850000000    -0.230121   
O18      O      0.396760000000     0.752790000000     0.805090000000    -0.230113   
O19      O      0.305000000000     0.854910000000     0.865250000000    -0.230124   
O20      O      0.300720000000     0.758940000000     0.901140000000    -0.229809   
O21      O      0.365160000000     0.752790000000     0.957010000000    -0.230106   
O22      O      0.360860000000     0.848750000000     0.800810000000    -0.229843   
O23      O      0.401060000000     0.848750000000     0.961290000000    -0.229791   
O24      O      0.461210000000     0.758940000000     0.860950000000    -0.229783   
O25      O      0.550720000000     0.098760000000     0.151140000000    -0.229797   
O26      O      0.706920000000     0.002780000000     0.146850000000    -0.229943   
O27      O      0.646770000000     0.104910000000     0.055090000000    -0.230172   
O28      O      0.610860000000     0.008940000000     0.050810000000    -0.229709   
O29      O      0.555010000000     0.002780000000     0.115240000000    -0.230039   
O30      O      0.711210000000     0.098760000000     0.110950000000    -0.229798   
O31      O      0.615160000000     0.104910000000     0.207010000000    -0.230095   
O32      O      0.651060000000     0.008940000000     0.211290000000    -0.229677   
O33      O      0.300720000000     0.258940000000     0.401140000000    -0.229812   
O34      O      0.456920000000     0.354910000000     0.396850000000    -0.230126   
O35      O      0.305000000000     0.354910000000     0.365240000000    -0.230196   
O36      O      0.396760000000     0.252780000000     0.305090000000    -0.230129   
O37      O      0.461210000000     0.258940000000     0.360950000000    -0.229788   
O38      O      0.360860000000     0.348760000000     0.300810000000    -0.229896   
O39      O      0.365160000000     0.252780000000     0.457010000000    -0.230122   
O40      O      0.401060000000     0.348760000000     0.461290000000    -0.229818   
O41      O      0.651060000000     0.508940000000     0.711290000000    -0.229875   
O42      O      0.646770000000     0.604910000000     0.555090000000    -0.230185   
O43      O      0.550720000000     0.598760000000     0.651140000000    -0.229813   
O44      O      0.555010000000     0.502780000000     0.615250000000    -0.23017    
O45      O      0.610860000000     0.508940000000     0.550810000000    -0.229879   
O46      O      0.615160000000     0.604910000000     0.707010000000    -0.230107   
O47      O      0.706920000000     0.502780000000     0.646850000000    -0.230143   
O48      O      0.711210000000     0.598760000000     0.610950000000    -0.229812   
O49      O      0.865160000000     0.752790000000     0.457010000000    -0.230101   
O50      O      0.805010000000     0.854910000000     0.365240000000    -0.230218   
O51      O      0.896770000000     0.752790000000     0.305090000000    -0.230187   
O52      O      0.901060000000     0.848750000000     0.461290000000    -0.229845   
O53      O      0.956920000000     0.854910000000     0.396850000000    -0.230123   
O54      O      0.961200000000     0.758940000000     0.360950000000    -0.229839   
O55      O      0.800720000000     0.758940000000     0.401140000000    -0.229807   
O56      O      0.860860000000     0.848750000000     0.300810000000    -0.229873   
O57      O      0.151060000000     0.008940000000     0.711290000000    -0.229626   
O58      O      0.146760000000     0.104910000000     0.555090000000    -0.230113   
O59      O      0.115160000000     0.104910000000     0.707010000000    -0.230094   
O60      O      0.055000000000     0.002780000000     0.615250000000    -0.229922   
O61      O      0.110870000000     0.008940000000     0.550810000000    -0.229617   
O62      O      0.050720000000     0.098760000000     0.651140000000    -0.229798   
O63      O      0.206920000000     0.002780000000     0.646850000000    -0.229942   
O64      O      0.211200000000     0.098760000000     0.610950000000    -0.229801   


