data_structure

_audit_creation_method RASPA-1.0
_audit_creation_date 2023-5-22
_audit_author_name 'Poobodin Mano'

_cell_length_a    28.4117
_cell_length_b    32.344
_cell_length_c    22.8428
_cell_angle_alpha 90.001
_cell_angle_beta  90.0002
_cell_angle_gamma 120.001
_cell_volume      18178.9

_symmetry_cell_setting          triclinic
_symmetry_space_group_name_Hall 'P 1'
_symmetry_space_group_name_H-M  'P 1'
_symmetry_Int_Tables_number     1

_symmetry_equiv_pos_as_xyz 'x,y,z'

loop_
_atom_site_label
_atom_site_type_symbol
_atom_site_fract_x
_atom_site_fract_y
_atom_site_fract_z
_atom_site_charge
C1       C      0.865280000000     0.572240000000     0.142590000000     0.282187   
C2       C      0.923820000000     0.490520000000     0.009330000000     0.266418   
C3       C      0.029070000000     0.653260000000     0.035870000000     0.280761   
C4       C      0.998590000000     0.555840000000     0.205150000000     0.282182   
C5       C      0.150660000000     0.325300000000     0.085440000000     0.283007   
C6       C      0.083830000000     0.403820000000     0.958740000000     0.269024   
C7       C      0.977680000000     0.241210000000     0.992850000000     0.280288   
C8       C      0.019630000000     0.341920000000     0.157920000000     0.282471   
C9       C      0.874860000000     0.333030000000     0.584360000000     0.265213   
C10      C      0.827310000000     0.189140000000     0.472270000000     0.2842     
C11      C      0.949050000000     0.321680000000     0.396690000000     0.281863   
C12      C      0.993750000000     0.274100000000     0.576630000000     0.28238    
C13      C      0.162580000000     0.595360000000     0.630850000000     0.267506   
C14      C      0.195540000000     0.727580000000     0.506470000000     0.2836     
C15      C      0.076990000000     0.586900000000     0.440870000000     0.283753   
C16      C      0.030040000000     0.637510000000     0.615010000000     0.282969   
C17      C      0.211300000000     0.143810000000     0.752920000000     0.282328   
C18      C      0.315260000000     0.250370000000     0.586950000000     0.266261   
C19      C      0.167700000000     0.250740000000     0.670410000000     0.282961   
C20      C      0.336320000000     0.280740000000     0.787130000000     0.283196   
C21      C      0.756020000000     0.727840000000     0.754410000000     0.28243    
C22      C      0.674370000000     0.586780000000     0.623730000000     0.266031   
C23      C      0.839720000000     0.637800000000     0.703450000000     0.281916   
C24      C      0.674780000000     0.594460000000     0.830860000000     0.280883   
C25      C      0.339750000000     0.315860000000     0.155190000000     0.285232   
C26      C      0.544120000000     0.391410000000     0.174070000000     0.264127   
C27      C      0.425860000000     0.233860000000     0.213040000000     0.28097    
C28      C      0.429570000000     0.313850000000     0.016860000000     0.282241   
C29      C      0.677980000000     0.584060000000     0.211370000000     0.283969   
C30      C      0.473640000000     0.504180000000     0.222060000000     0.266039   
C31      C      0.585800000000     0.666850000000     0.242610000000     0.28116    
C32      C      0.591090000000     0.574360000000     0.064510000000     0.281428   
C33      C      0.213510000000     0.988860000000     0.867810000000     0.280634   
C34      C      0.339160000000     0.967970000000     0.992980000000     0.266273   
C35      C      0.182220000000     0.836890000000     0.937580000000     0.284522   
C36      C      0.315290000000     0.950210000000     0.787670000000     0.280523   
C37      C      0.738180000000     0.883230000000     0.853560000000     0.283156   
C38      C      0.653170000000     0.930920000000     0.989830000000     0.268262   
C39      C      0.809650000000     0.055480000000     0.914060000000     0.281559   
C40      C      0.682470000000     0.961150000000     0.772210000000     0.28173    
C41      C      0.353440000000     0.914920000000     0.424570000000     0.279519   
C42      C      0.536920000000     0.038300000000     0.408840000000     0.269628   
C43      C      0.417470000000     0.084410000000     0.360260000000     0.282086   
C44      C      0.398350000000     0.012790000000     0.554310000000     0.279008   
C45      C      0.658100000000     0.002570000000     0.400770000000     0.28139    
C46      C      0.471740000000     0.884360000000     0.378090000000     0.274381   
C47      C      0.586110000000     0.827300000000     0.355840000000     0.28168    
C48      C      0.602600000000     0.908810000000     0.535960000000     0.279593   
C49      C      0.666530000000     0.040410000000     0.577900000000    -0.0364271  
C50      C      0.646940000000     0.048320000000     0.630360000000     0.0258719  
C51      C      0.681420000000     0.067100000000     0.678740000000    -0.035289   
C52      C      0.735580000000     0.078020000000     0.674620000000    -0.0325873  
C53      C      0.755180000000     0.070140000000     0.622130000000     0.0252302  
C54      C      0.720680000000     0.051300000000     0.573800000000    -0.0351652  
C55      C      0.695820000000     0.950480000000     0.666950000000    -0.0087833  
C56      C      0.661760000000     0.950320000000     0.711580000000    -0.055245   
C57      C      0.607160000000     0.935230000000     0.698480000000    -0.0084484  
C58      C      0.587220000000     0.920850000000     0.641540000000    -0.00879669 
C59      C      0.621410000000     0.920630000000     0.597170000000    -0.0551726  
C60      C      0.675810000000     0.935500000000     0.610620000000    -0.00952593 
C61      C      0.302050000000     0.956030000000     0.681120000000    -0.0082352  
C62      C      0.337730000000     0.965940000000     0.728340000000    -0.0550353  
C63      C      0.394010000000     0.993680000000     0.718680000000    -0.00782602 
C64      C      0.414170000000     0.010090000000     0.662280000000    -0.00856775 
C65      C      0.378280000000     0.000050000000     0.615060000000    -0.0539763  
C66      C      0.322040000000     0.973280000000     0.625310000000    -0.00923704 
C67      C      0.312360000000     0.864330000000     0.606680000000    -0.0371506  
C68      C      0.289110000000     0.844420000000     0.660810000000     0.030691   
C69      C      0.322370000000     0.849760000000     0.708670000000    -0.0340807  
C70      C      0.378940000000     0.875010000000     0.702370000000    -0.0352072  
C71      C      0.402180000000     0.894830000000     0.648210000000     0.0244694  
C72      C      0.368920000000     0.889500000000     0.600360000000    -0.0355125  
C73      C      0.581830000000     0.709430000000     0.332390000000    -0.00676264 
C74      C      0.587880000000     0.708830000000     0.271380000000    -0.0505358  
C75      C      0.594840000000     0.748200000000     0.238370000000    -0.00638323 
C76      C      0.595290000000     0.787160000000     0.265800000000    -0.00624187 
C77      C      0.588220000000     0.787280000000     0.326720000000    -0.0509954  
C78      C      0.581730000000     0.748080000000     0.359690000000    -0.0062631  
C79      C      0.490820000000     0.453270000000     0.071270000000    -0.0274412  
C80      C      0.527110000000     0.443600000000     0.041230000000     0.0422553  
C81      C      0.531340000000     0.448040000000     0.980330000000    -0.0402148  
C82      C      0.499650000000     0.462650000000     0.949460000000    -0.0338723  
C83      C      0.463410000000     0.472400000000     0.979490000000     0.016779   
C84      C      0.458870000000     0.467590000000     0.040380000000    -0.0263119  
C85      C      0.419750000000     0.162340000000     0.347330000000    -0.00616073 
C86      C      0.416390000000     0.121210000000     0.322450000000    -0.0508756  
C87      C      0.414360000000     0.116660000000     0.261120000000    -0.00602605 
C88      C      0.416920000000     0.152980000000     0.225460000000    -0.00643739 
C89      C      0.421070000000     0.194420000000     0.250400000000    -0.0501875  
C90      C      0.421820000000     0.198410000000     0.311740000000    -0.00671458 
C91      C      0.715590000000     0.780500000000     0.756900000000    -0.00730029 
C92      C      0.756090000000     0.770910000000     0.776030000000    -0.0517609  
C93      C      0.792520000000     0.799870000000     0.819860000000    -0.00679845 
C94      C      0.787700000000     0.837190000000     0.844820000000    -0.00585377 
C95      C      0.745650000000     0.845280000000     0.827140000000    -0.0528851  
C96      C      0.710150000000     0.816950000000     0.782490000000    -0.0062097  
C97      C      0.661790000000     0.560930000000     0.931990000000    -0.00956576 
C98      C      0.646750000000     0.582350000000     0.888060000000    -0.0573604  
C99      C      0.608770000000     0.596880000000     0.901260000000    -0.00934891 
C100     C      0.589030000000     0.592950000000     0.958280000000    -0.00862436 
C101     C      0.606200000000     0.573670000000     0.002810000000    -0.0551187  
C102     C      0.641530000000     0.556440000000     0.988730000000    -0.00937303 
C103     C      0.209440000000     0.064180000000     0.874100000000    -0.00658778 
C104     C      0.199590000000     0.023370000000     0.842550000000    -0.0520286  
C105     C      0.184460000000     0.019480000000     0.783300000000    -0.00691612 
C106     C      0.184520000000     0.057650000000     0.754700000000    -0.00617664 
C107     C      0.198700000000     0.099960000000     0.785150000000    -0.0520194  
C108     C      0.208520000000     0.102030000000     0.845710000000    -0.00623796 
C109     C      0.370250000000     0.331050000000     0.877320000000    -0.0100455  
C110     C      0.369590000000     0.295780000000     0.841040000000    -0.0543453  
C111     C      0.395400000000     0.270720000000     0.860330000000    -0.0100328  
C112     C      0.417720000000     0.278230000000     0.916580000000    -0.0100002  
C113     C      0.415300000000     0.311400000000     0.954190000000    -0.0571464  
C114     C      0.393200000000     0.339000000000     0.933140000000    -0.0092965  
C115     C      0.581180000000     0.429370000000     0.834760000000    -0.0424148  
C116     C      0.596410000000     0.473410000000     0.808710000000     0.0320367  
C117     C      0.557980000000     0.480120000000     0.778430000000    -0.0395189  
C118     C      0.504250000000     0.442690000000     0.774110000000    -0.034607   
C119     C      0.489030000000     0.398640000000     0.800160000000     0.0205727  
C120     C      0.527430000000     0.391980000000     0.830560000000    -0.0351705  
C121     C      0.291380000000     0.788620000000     0.481130000000    -0.00693172 
C122     C      0.235730000000     0.773870000000     0.480470000000    -0.0560474  
C123     C      0.218860000000     0.803850000000     0.454920000000    -0.00852676 
C124     C      0.257070000000     0.848660000000     0.433050000000    -0.00980233 
C125     C      0.312910000000     0.864370000000     0.436300000000    -0.0549316  
C126     C      0.329550000000     0.833380000000     0.459210000000    -0.0133833  
C127     C      0.982070000000     0.681100000000     0.646290000000    -0.00643706 
C128     C      0.983570000000     0.638390000000     0.643140000000    -0.0524283  
C129     C      0.938810000000     0.596040000000     0.663940000000    -0.0061805  
C130     C      0.892830000000     0.596150000000     0.685720000000    -0.00698888 
C131     C      0.890450000000     0.638510000000     0.686560000000    -0.0513783  
C132     C      0.935900000000     0.681120000000     0.667500000000    -0.00660809 
C133     C      0.797490000000     0.110450000000     0.423250000000    -0.0092705  
C134     C      0.784290000000     0.142790000000     0.449180000000    -0.0548764  
C135     C      0.729490000000     0.130440000000     0.452890000000    -0.0084201  
C136     C      0.688600000000     0.085910000000     0.433440000000    -0.00987827 
C137     C      0.701520000000     0.052610000000     0.410020000000    -0.0569585  
C138     C      0.756480000000     0.065770000000     0.403830000000    -0.00923473 
C139     C      0.993000000000     0.458780000000     0.500860000000    -0.0341283  
C140     C      0.047560000000     0.479010000000     0.517100000000     0.0496834  
C141     C      0.086230000000     0.483220000000     0.476050000000    -0.0377306  
C142     C      0.070290000000     0.467150000000     0.418700000000    -0.0261427  
C143     C      0.015720000000     0.446770000000     0.402570000000     0.00939189 
C144     C      0.977040000000     0.442500000000     0.443570000000    -0.0229682  
C145     C      0.027500000000     0.223860000000     0.623340000000    -0.00615542 
C146     C      0.037050000000     0.269110000000     0.606090000000    -0.0523673  
C147     C      0.089140000000     0.308940000000     0.614250000000    -0.00615666 
C148     C      0.131280000000     0.303360000000     0.637340000000    -0.00653483 
C149     C      0.122200000000     0.257790000000     0.652240000000    -0.0519251  
C150     C      0.069650000000     0.218250000000     0.645950000000    -0.00654554 
C151     C      0.039780000000     0.363260000000     0.263560000000    -0.00985517 
C152     C      0.001520000000     0.342950000000     0.218140000000    -0.0559809  
C153     C      0.945920000000     0.320290000000     0.231620000000    -0.00852831 
C154     C      0.928860000000     0.316160000000     0.289730000000    -0.00901187 
C155     C      0.967100000000     0.333940000000     0.335410000000    -0.0582848  
C156     C      0.022720000000     0.358580000000     0.321710000000    -0.00961407 
C157     C      0.248000000000     0.365170000000     0.117130000000    -0.00824315 
C158     C      0.198040000000     0.323110000000     0.108290000000    -0.051719   
C159     C      0.193880000000     0.278910000000     0.121040000000    -0.00723771 
C160     C      0.239430000000     0.276680000000     0.139580000000    -0.00573298 
C161     C      0.289910000000     0.318620000000     0.146220000000    -0.0541089  
C162     C      0.293460000000     0.362960000000     0.136140000000    -0.0061086  
C163     C      0.883520000000     0.186420000000     0.955740000000    -0.00715453 
C164     C      0.935780000000     0.194570000000     0.969100000000    -0.0508475  
C165     C      0.946900000000     0.157140000000     0.961720000000    -0.00702303 
C166     C      0.906190000000     0.112140000000     0.942920000000    -0.0064362  
C167     C      0.853630000000     0.103750000000     0.930680000000    -0.0526127  
C168     C      0.842950000000     0.141550000000     0.936520000000    -0.00689267 
C169     C      0.823260000000     0.620290000000     0.175700000000    -0.00683032 
C170     C      0.819300000000     0.575590000000     0.167530000000    -0.0521956  
C171     C      0.770390000000     0.534060000000     0.181740000000    -0.00756753 
C172     C      0.725410000000     0.537050000000     0.200670000000    -0.00633401 
C173     C      0.728320000000     0.581610000000     0.205220000000    -0.0518934  
C174     C      0.778120000000     0.623260000000     0.194120000000    -0.00656248 
C175     C      0.982170000000     0.537710000000     0.311780000000    -0.0119095  
C176     C      0.018850000000     0.556340000000     0.264760000000    -0.0559443  
C177     C      0.074870000000     0.579210000000     0.276100000000    -0.0102912  
C178     C      0.093890000000     0.585940000000     0.333690000000    -0.00913382 
C179     C      0.057190000000     0.570620000000     0.380850000000    -0.0583978  
C180     C      0.001170000000     0.545060000000     0.369310000000    -0.00856135 
C181     C      0.007290000000     0.445160000000     0.138170000000    -0.0291074  
C182     C      0.043170000000     0.463410000000     0.185480000000     0.0303251  
C183     C      0.022970000000     0.457980000000     0.242460000000    -0.0379736  
C184     C      0.966840000000     0.434540000000     0.252120000000    -0.0337939  
C185     C      0.930960000000     0.416400000000     0.204810000000     0.0262409  
C186     C      0.951160000000     0.421540000000     0.147860000000    -0.0258067  
C187     C      0.054010000000     0.735510000000     0.003190000000    -0.00688792 
C188     C      0.067370000000     0.699280000000     0.007880000000    -0.050505   
C189     C      0.118150000000     0.708030000000     0.987200000000    -0.00711919 
C190     C      0.155100000000     0.752390000000     0.963020000000    -0.00554318 
C191     C      0.142190000000     0.788980000000     0.959720000000    -0.0533592  
C192     C      0.091110000000     0.779950000000     0.979670000000    -0.00554357 
Cd1      Cd     0.955150000000     0.565610000000     0.095300000000     0.507149   
Cd2      Cd     0.057520000000     0.330190000000     0.045520000000     0.507643   
Cd3      Cd     0.911430000000     0.281690000000     0.511080000000     0.507649   
Cd4      Cd     0.116570000000     0.635100000000     0.551240000000     0.507033   
Cd5      Cd     0.257020000000     0.234610000000     0.695930000000     0.510313   
Cd6      Cd     0.737840000000     0.634640000000     0.726240000000     0.509066   
Cd7      Cd     0.438460000000     0.313140000000     0.142510000000     0.507765   
Cd8      Cd     0.578220000000     0.582870000000     0.188150000000     0.508347   
Cd9      Cd     0.261180000000     0.931920000000     0.899170000000     0.508877   
Cd10     Cd     0.721980000000     0.960650000000     0.887410000000     0.510465   
Cd11     Cd     0.427530000000     0.015830000000     0.433180000000     0.509272   
Cd12     Cd     0.577930000000     0.903240000000     0.413400000000     0.510468   
H1       H      0.639580000000     0.025480000000     0.540760000000     0.0602043  
H2       H      0.666080000000     0.073010000000     0.719340000000     0.0553306  
H3       H      0.762340000000     0.092430000000     0.712010000000     0.0581683  
H4       H      0.735860000000     0.044810000000     0.533510000000     0.0534602  
H5       H      0.737930000000     0.961400000000     0.675670000000     0.0547042  
H6       H      0.579870000000     0.934370000000     0.732180000000     0.0536897  
H7       H      0.545230000000     0.910040000000     0.632280000000     0.0535548  
H8       H      0.703450000000     0.936380000000     0.577340000000     0.0550951  
H9       H      0.258450000000     0.935360000000     0.687400000000     0.0549994  
H10      H      0.422340000000     0.002150000000     0.754530000000     0.0535575  
H11      H      0.457730000000     0.030270000000     0.655550000000     0.0543818  
H12      H      0.293260000000     0.964340000000     0.589800000000     0.0550978  
H13      H      0.286490000000     0.860540000000     0.569960000000     0.0535252  
H14      H      0.304250000000     0.834480000000     0.750550000000     0.0619196  
H15      H      0.404800000000     0.879330000000     0.739350000000     0.0539899  
H16      H      0.387080000000     0.905190000000     0.558680000000     0.0625235  
H17      H      0.576370000000     0.679680000000     0.359120000000     0.0589431  
H18      H      0.599720000000     0.748870000000     0.191290000000     0.0591897  
H19      H      0.600300000000     0.816810000000     0.239180000000     0.0591655  
H20      H      0.576330000000     0.747090000000     0.406710000000     0.0583624  
H21      H      0.487530000000     0.449630000000     0.118360000000     0.0730839  
H22      H      0.559530000000     0.440580000000     0.957360000000     0.0501119  
H23      H      0.503180000000     0.466600000000     0.902430000000     0.0475137  
H24      H      0.430720000000     0.475070000000     0.063480000000     0.0593329  
H25      H      0.421310000000     0.166940000000     0.394390000000     0.0588054  
H26      H      0.411880000000     0.085440000000     0.240590000000     0.0594868  
H27      H      0.416080000000     0.148740000000     0.178370000000     0.0595006  
H28      H      0.424950000000     0.229830000000     0.332400000000     0.0590654  
H29      H      0.686730000000     0.758770000000     0.723450000000     0.0586264  
H30      H      0.824060000000     0.793160000000     0.835570000000     0.0568904  
H31      H      0.815830000000     0.858800000000     0.878850000000     0.0565588  
H32      H      0.677880000000     0.822870000000     0.767230000000     0.0562955  
H33      H      0.690650000000     0.549110000000     0.923030000000     0.0542849  
H34      H      0.596310000000     0.613460000000     0.868210000000     0.0544661  
H35      H      0.561520000000     0.606140000000     0.967820000000     0.0547739  
H36      H      0.655330000000     0.541150000000     0.022110000000     0.0543731  
H37      H      0.220940000000     0.068020000000     0.919850000000     0.0582003  
H38      H      0.176520000000     0.988400000000     0.757810000000     0.0563059  
H39      H      0.176410000000     0.055000000000     0.708100000000     0.0572069  
H40      H      0.219510000000     0.134230000000     0.870350000000     0.0571567  
H41      H      0.351010000000     0.351110000000     0.863570000000     0.0545586  
H42      H      0.395600000000     0.243290000000     0.833300000000     0.056616   
H43      H      0.434720000000     0.256630000000     0.931440000000     0.0557482  
H44      H      0.390770000000     0.364960000000     0.960990000000     0.0530092  
H45      H      0.611000000000     0.424380000000     0.858310000000     0.0529463  
H46      H      0.569900000000     0.514260000000     0.758380000000     0.0651099  
H47      H      0.474380000000     0.447720000000     0.750730000000     0.0546255  
H48      H      0.515480000000     0.357900000000     0.850790000000     0.0505596  
H49      H      0.305640000000     0.766140000000     0.500000000000     0.0581716  
H50      H      0.176190000000     0.793280000000     0.453190000000     0.0567291  
H51      H      0.242910000000     0.871770000000     0.415950000000     0.0577169  
H52      H      0.372270000000     0.844510000000     0.462770000000     0.0614736  
H53      H      0.015900000000     0.714330000000     0.630660000000     0.0575378  
H54      H      0.938810000000     0.562570000000     0.662290000000     0.0558472  
H55      H      0.858490000000     0.562730000000     0.700090000000     0.0573763  
H56      H      0.935410000000     0.714390000000     0.667810000000     0.0576944  
H57      H      0.839440000000     0.119150000000     0.419240000000     0.0564969  
H58      H      0.717980000000     0.154710000000     0.472170000000     0.0583682  
H59      H      0.646770000000     0.076850000000     0.439380000000     0.0536977  
H60      H      0.767810000000     0.040840000000     0.386320000000     0.0569307  
H61      H      0.963250000000     0.455740000000     0.532690000000     0.0652928  
H62      H      0.128430000000     0.499020000000     0.488740000000     0.0641342  
H63      H      0.100050000000     0.470430000000     0.386720000000     0.0450182  
H64      H      0.934860000000     0.426740000000     0.430790000000     0.053542   
H65      H      0.987810000000     0.192480000000     0.617770000000     0.0564838  
H66      H      0.097710000000     0.344310000000     0.601570000000     0.0563949  
H67      H      0.171330000000     0.334510000000     0.641700000000     0.0575197  
H68      H      0.061270000000     0.182680000000     0.657300000000     0.0573993  
H69      H      0.082960000000     0.381110000000     0.254470000000     0.0536999  
H70      H      0.915550000000     0.304610000000     0.197450000000     0.0547947  
H71      H      0.885680000000     0.297010000000     0.298940000000     0.0551538  
H72      H      0.053100000000     0.372720000000     0.356000000000     0.0514789  
H73      H      0.252310000000     0.399800000000     0.108270000000     0.0567396  
H74      H      0.155810000000     0.245900000000     0.115130000000     0.0580132  
H75      H      0.235470000000     0.241980000000     0.146830000000     0.0569775  
H76      H      0.331890000000     0.395900000000     0.140390000000     0.0536076  
H77      H      0.873710000000     0.214560000000     0.960820000000     0.0573264  
H78      H      0.986760000000     0.162290000000     0.971650000000     0.0583737  
H79      H      0.915740000000     0.083780000000     0.938670000000     0.0580714  
H80      H      0.802890000000     0.136250000000     0.927390000000     0.0566964  
H81      H      0.860590000000     0.652960000000     0.165650000000     0.057847   
H82      H      0.766320000000     0.499130000000     0.176600000000     0.0569355  
H83      H      0.687550000000     0.504260000000     0.208590000000     0.0568891  
H84      H      0.781610000000     0.658110000000     0.197120000000     0.0573069  
H85      H      0.938710000000     0.519570000000     0.304340000000     0.0536903  
H86      H      0.104020000000     0.593440000000     0.240620000000     0.0553011  
H87      H      0.137350000000     0.605600000000     0.341240000000     0.0547993  
H88      H      0.971930000000     0.532570000000     0.404750000000     0.051963   
H89      H      0.023040000000     0.449290000000     0.094140000000     0.0723968  
H90      H      0.050890000000     0.472070000000     0.278920000000     0.0473097  
H91      H      0.951000000000     0.430340000000     0.296100000000     0.0478975  
H92      H      0.923260000000     0.407250000000     0.111380000000     0.062565   
H93      H      0.015220000000     0.729890000000     0.018740000000     0.0587721  
H94      H      0.129540000000     0.680750000000     0.990090000000     0.0578339  
H95      H      0.194180000000     0.758330000000     0.948050000000     0.0570125  
H96      H      0.079880000000     0.807360000000     0.977530000000     0.0577291  
O1       O      0.905980000000     0.519270000000     0.007700000000    -0.223756   
O2       O      0.029340000000     0.582800000000     0.165090000000    -0.230068   
O3       O      0.860380000000     0.532640000000     0.127210000000    -0.228118   
O4       O      0.042740000000     0.622730000000     0.049210000000    -0.227594   
O5       O      0.981210000000     0.642900000000     0.049400000000    -0.225155   
O6       O      0.911410000000     0.608890000000     0.134500000000    -0.225809   
O7       O      0.956120000000     0.496530000000     0.050660000000    -0.233264   
O8       O      0.948570000000     0.532010000000     0.193160000000    -0.236928   
O9       O      0.096010000000     0.371550000000     0.951860000000    -0.223832   
O10      O      0.069340000000     0.363820000000     0.144280000000    -0.236097   
O11      O      0.154580000000     0.364070000000     0.068010000000    -0.228363   
O12      O      0.966590000000     0.273160000000     0.007320000000    -0.228436   
O13      O      0.026060000000     0.250730000000     0.001820000000    -0.224441   
O14      O      0.103940000000     0.288510000000     0.082380000000    -0.226447   
O15      O      0.059490000000     0.402050000000     0.005730000000    -0.230428   
O16      O      0.986860000000     0.315990000000     0.118540000000    -0.231417   
O17      O      0.816360000000     0.218640000000     0.496240000000    -0.2297     
O18      O      0.002890000000     0.313110000000     0.553890000000    -0.229869   
O19      O      0.866680000000     0.292110000000     0.597960000000    -0.223608   
O20      O      0.899250000000     0.300250000000     0.410140000000    -0.235966   
O21      O      0.981930000000     0.327150000000     0.437340000000    -0.231379   
O22      O      0.899910000000     0.350160000000     0.536890000000    -0.233889   
O23      O      0.877140000000     0.201730000000     0.468540000000    -0.23051    
O24      O      0.946250000000     0.238940000000     0.570050000000    -0.230606   
O25      O      0.209650000000     0.700280000000     0.530770000000    -0.230045   
O26      O      0.028340000000     0.598680000000     0.602410000000    -0.23154    
O27      O      0.165610000000     0.635100000000     0.640350000000    -0.223877   
O28      O      0.127140000000     0.610420000000     0.452510000000    -0.236457   
O29      O      0.045050000000     0.583260000000     0.481640000000    -0.234707   
O30      O      0.138280000000     0.574020000000     0.584520000000    -0.232007   
O31      O      0.145080000000     0.712920000000     0.505200000000    -0.229442   
O32      O      0.072420000000     0.675390000000     0.599330000000    -0.228277   
O33      O      0.281840000000     0.208920000000     0.605030000000    -0.216326   
O34      O      0.300300000000     0.292110000000     0.777180000000    -0.226985   
O35      O      0.222750000000     0.148300000000     0.698780000000    -0.221658   
O36      O      0.162180000000     0.209520000000     0.672870000000    -0.233681   
O37      O      0.214810000000     0.285260000000     0.681180000000    -0.228406   
O38      O      0.218290000000     0.180820000000     0.779430000000    -0.231368   
O39      O      0.321740000000     0.284530000000     0.619270000000    -0.223516   
O40      O      0.337540000000     0.250830000000     0.752450000000    -0.233812   
O41      O      0.705230000000     0.631550000000     0.625440000000    -0.217956   
O42      O      0.718670000000     0.594050000000     0.822520000000    -0.229345   
O43      O      0.725450000000     0.703360000000     0.712600000000    -0.225723   
O44      O      0.833060000000     0.673040000000     0.693620000000    -0.230613   
O45      O      0.799550000000     0.601180000000     0.725400000000    -0.229211   
O46      O      0.781580000000     0.710600000000     0.780680000000    -0.229668   
O47      O      0.672880000000     0.564150000000     0.669440000000    -0.22843    
O48      O      0.659060000000     0.610540000000     0.789510000000    -0.239594   
O49      O      0.501160000000     0.384840000000     0.198910000000    -0.218991   
O50      O      0.439470000000     0.283760000000     0.041340000000    -0.225603   
O51      O      0.385750000000     0.353000000000     0.162140000000    -0.229999   
O52      O      0.425470000000     0.269670000000     0.234830000000    -0.230691   
O53      O      0.431750000000     0.234300000000     0.157970000000    -0.225636   
O54      O      0.339680000000     0.277020000000     0.147900000000    -0.232956   
O55      O      0.538200000000     0.361750000000     0.134640000000    -0.229549   
O56      O      0.426650000000     0.343540000000     0.050220000000    -0.242478   
O57      O      0.516280000000     0.515400000000     0.251010000000    -0.215257   
O58      O      0.573100000000     0.600910000000     0.082790000000    -0.225665   
O59      O      0.632290000000     0.546820000000     0.219460000000    -0.224022   
O60      O      0.584800000000     0.633260000000     0.272060000000    -0.230851   
O61      O      0.583790000000     0.661970000000     0.187460000000    -0.226207   
O62      O      0.677100000000     0.621770000000     0.198580000000    -0.23177    
O63      O      0.479370000000     0.529380000000     0.177440000000    -0.23392    
O64      O      0.599970000000     0.551050000000     0.102870000000    -0.240347   
O65      O      0.301390000000     0.977800000000     0.989230000000    -0.214759   
O66      O      0.267310000000     0.916150000000     0.795370000000    -0.231598   
O67      O      0.243540000000     0.998740000000     0.912650000000    -0.22253    
O68      O      0.175260000000     0.872280000000     0.944160000000    -0.233741   
O69      O      0.225800000000     0.845150000000     0.912470000000    -0.232769   
O70      O      0.202970000000     0.951160000000     0.840650000000    -0.230983   
O71      O      0.340810000000     0.941440000000     0.953270000000    -0.218737   
O72      O      0.340390000000     0.973350000000     0.832840000000    -0.22957    
O73      O      0.692950000000     0.923910000000     0.984980000000    -0.223042   
O74      O      0.732320000000     0.977190000000     0.783060000000    -0.23797    
O75      O      0.693270000000     0.882120000000     0.848760000000    -0.234099   
O76      O      0.816150000000     0.019510000000     0.915420000000    -0.227567   
O77      O      0.762870000000     0.047610000000     0.899630000000    -0.23488    
O78      O      0.776320000000     0.919600000000     0.878560000000    -0.22273    
O79      O      0.645230000000     0.951680000000     0.947300000000    -0.217689   
O80      O      0.650920000000     0.949160000000     0.815990000000    -0.22451    
O81      O      0.497220000000     0.008420000000     0.378370000000    -0.212145   
O82      O      0.366260000000     0.007270000000     0.512800000000    -0.232669   
O83      O      0.402900000000     0.931790000000     0.437960000000    -0.23466    
O84      O      0.410270000000     0.045250000000     0.339910000000    -0.228182   
O85      O      0.427820000000     0.091200000000     0.414460000000    -0.231027   
O86      O      0.339470000000     0.944870000000     0.409150000000    -0.227215   
O87      O      0.525920000000     0.057710000000     0.450690000000    -0.221873   
O88      O      0.446480000000     0.024380000000     0.540010000000    -0.227534   
O89      O      0.513540000000     0.909790000000     0.347440000000    -0.214251   
O90      O      0.633530000000     0.908140000000     0.496630000000    -0.234585   
O91      O      0.609680000000     0.988660000000     0.416000000000    -0.236933   
O92      O      0.597890000000     0.865690000000     0.329300000000    -0.227228   
O93      O      0.571300000000     0.824510000000     0.408630000000    -0.231677   
O94      O      0.668390000000     0.970260000000     0.385430000000    -0.227527   
O95      O      0.479140000000     0.867710000000     0.425100000000    -0.222639   
O96      O      0.557180000000     0.902940000000     0.519040000000    -0.227002   


