data_structure

_audit_creation_method RASPA-1.0
_audit_creation_date 2023-5-22
_audit_author_name 'Poobodin Mano'

_cell_length_a    31.1698
_cell_length_b    32.8459
_cell_length_c    33.2993
_cell_angle_alpha 90.0007
_cell_angle_beta  90.0001
_cell_angle_gamma 119.919
_cell_volume      29548.5

_symmetry_cell_setting          triclinic
_symmetry_space_group_name_Hall 'P 1'
_symmetry_space_group_name_H-M  'P 1'
_symmetry_Int_Tables_number     1

_symmetry_equiv_pos_as_xyz 'x,y,z'

loop_
_atom_site_label
_atom_site_type_symbol
_atom_site_fract_x
_atom_site_fract_y
_atom_site_fract_z
_atom_site_charge
C1       C      0.500490000000     0.549530000000     0.198840000000     0.285175   
C2       C      0.447250000000     0.645950000000     0.269690000000     0.283839   
C3       C      0.332140000000     0.508850000000     0.206590000000     0.285803   
C4       C      0.422310000000     0.504680000000     0.322330000000     0.282784   
C5       C      0.168950000000     0.489700000000     0.112920000000     0.285185   
C6       C      0.062240000000     0.460700000000     0.495790000000     0.283462   
C7       C      0.034320000000     0.515040000000     0.115340000000     0.28322    
C8       C      0.177990000000     0.610450000000     0.033360000000     0.286064   
C9       C      0.433160000000     0.794550000000     0.347640000000     0.280096   
C10      C      0.442910000000     0.912200000000     0.459040000000     0.282246   
C11      C      0.396500000000     0.908230000000     0.338180000000     0.281016   
C12      C      0.321150000000     0.770880000000     0.442910000000     0.282076   
C13      C      0.897760000000     0.453750000000     0.245590000000     0.282876   
C14      C      0.796820000000     0.441200000000     0.355070000000     0.28615    
C15      C      0.779520000000     0.304410000000     0.291210000000     0.284272   
C16      C      0.922870000000     0.398460000000     0.367820000000     0.284117   
C17      C      0.498380000000     0.444700000000     0.451100000000     0.282008   
C18      C      0.549560000000     0.346720000000     0.531590000000     0.283805   
C19      C      0.653820000000     0.461320000000     0.448220000000     0.283934   
C20      C      0.575540000000     0.487620000000     0.071450000000     0.282916   
C21      C      0.531510000000     0.184980000000     0.115660000000     0.282336   
C22      C      0.461490000000     0.039620000000     0.211070000000     0.280934   
C23      C      0.511590000000     0.047320000000     0.088350000000     0.282092   
C24      C      0.617130000000     0.155230000000     0.206930000000     0.280574   
C25      C      0.582510000000     0.295020000000     0.052800000000    -0.00646236 
C26      C      0.542530000000     0.303320000000     0.051020000000    -0.0522036  
C27      C      0.497800000000     0.271580000000     0.069970000000    -0.00625279 
C28      C      0.493720000000     0.232820000000     0.091130000000    -0.00688471 
C29      C      0.534210000000     0.225140000000     0.093320000000    -0.0521498  
C30      C      0.578370000000     0.256430000000     0.073550000000    -0.00709173 
C31      C      0.721900000000     0.450330000000     0.358830000000    -0.0060757  
C32      C      0.765070000000     0.455510000000     0.376900000000    -0.0533173  
C33      C      0.774520000000     0.469360000000     0.417400000000    -0.00596407 
C34      C      0.739860000000     0.474760000000     0.440080000000    -0.00658207 
C35      C      0.694920000000     0.465910000000     0.422750000000    -0.0522138  
C36      C      0.687070000000     0.455250000000     0.381580000000    -0.00647058 
C37      C      0.653530000000     0.200580000000     0.269850000000    -0.00675111 
C38      C      0.660700000000     0.186150000000     0.231900000000    -0.051491   
C39      C      0.709010000000     0.206230000000     0.216500000000    -0.00705137 
C40      C      0.748720000000     0.242760000000     0.237230000000    -0.00603663 
C41      C      0.740670000000     0.259690000000     0.273640000000    -0.0524262  
C42      C      0.693020000000     0.236920000000     0.290460000000    -0.00615523 
C43      C      0.390830000000     0.924950000000     0.266220000000    -0.00541167 
C44      C      0.400360000000     0.940620000000     0.306120000000    -0.0521106  
C45      C      0.422440000000     0.988890000000     0.314240000000    -0.00469974 
C46      C      0.437670000000     0.021330000000     0.282780000000    -0.00593821 
C47      C      0.432630000000     0.005910000000     0.242880000000    -0.0516689  
C48      C      0.407660000000     0.957480000000     0.234750000000    -0.00524652 
C49      C      0.436140000000     0.969890000000     0.502670000000    -0.0070076  
C50      C      0.463120000000     0.948080000000     0.491080000000    -0.0518689  
C51      C      0.507950000000     0.960500000000     0.510740000000    -0.00663287 
C52      C      0.524680000000     0.993420000000     0.042170000000    -0.00695169 
C53      C      0.496890000000     0.014440000000     0.054070000000    -0.0515048  
C54      C      0.452810000000     0.002610000000     0.033600000000    -0.00757168 
C55      C      0.044930000000     0.455420000000     0.422340000000    -0.0060555  
C56      C      0.030460000000     0.436080000000     0.460930000000    -0.0522541  
C57      C      0.982290000000     0.398120000000     0.466620000000    -0.00633988 
C58      C      0.947820000000     0.383070000000     0.435240000000    -0.00621801 
C59      C      0.961140000000     0.405570000000     0.397680000000    -0.0526148  
C60      C      0.010670000000     0.440210000000     0.391000000000    -0.00611972 
C61      C      0.008860000000     0.532290000000     0.181700000000    -0.00615388 
C62      C      0.996000000000     0.507210000000     0.145350000000    -0.0523146  
C63      C      0.947510000000     0.469670000000     0.140310000000    -0.00605229 
C64      C      0.914020000000     0.454680000000     0.172180000000    -0.00634515 
C65      C      0.928360000000     0.476860000000     0.209770000000    -0.0517722  
C66      C      0.975280000000     0.517190000000     0.213720000000    -0.006472   
C67      C      0.198000000000     0.677380000000     0.486010000000    -0.00565704 
C68      C      0.213710000000     0.654670000000     0.513190000000    -0.0531946  
C69      C      0.264630000000     0.672290000000     0.518570000000    -0.00589576 
C70      C      0.299110000000     0.710610000000     0.496310000000    -0.00734342 
C71      C      0.283640000000     0.732330000000     0.467980000000    -0.0518772  
C72      C      0.232740000000     0.715920000000     0.463510000000    -0.00718063 
C73      C      0.538300000000     0.502610000000     0.175150000000    -0.00604635 
C74      C      0.531320000000     0.541360000000     0.169810000000    -0.0530701  
C75      C      0.547920000000     0.567500000000     0.134070000000    -0.00608636 
C76      C      0.566900000000     0.552480000000     0.102850000000    -0.00629579 
C77      C      0.569080000000     0.510960000000     0.106930000000    -0.0524629  
C78      C      0.556730000000     0.487440000000     0.143960000000    -0.00583161 
C79      C      0.427950000000     0.439670000000     0.357020000000    -0.00641145 
C80      C      0.430400000000     0.483580000000     0.358720000000    -0.0519703  
C81      C      0.447780000000     0.510430000000     0.393960000000    -0.00638398 
C82      C      0.466500000000     0.495790000000     0.425360000000    -0.00635489 
C83      C      0.468220000000     0.453970000000     0.422230000000    -0.0520881  
C84      C      0.446720000000     0.424950000000     0.388590000000    -0.0065028  
C85      C      0.421680000000     0.706720000000     0.269400000000    -0.00606295 
C86      C      0.451810000000     0.690130000000     0.285300000000    -0.0524234  
C87      C      0.481300000000     0.712780000000     0.319080000000    -0.00599551 
C88      C      0.477800000000     0.749040000000     0.338290000000    -0.00721256 
C89      C      0.444820000000     0.763150000000     0.323930000000    -0.0513125  
C90      C      0.418280000000     0.742810000000     0.288430000000    -0.00713926 
C91      C      0.244650000000     0.481980000000     0.119090000000    -0.00625169 
C92      C      0.205350000000     0.484260000000     0.137500000000    -0.0526444  
C93      C      0.204940000000     0.487810000000     0.179580000000    -0.00616993 
C94      C      0.244730000000     0.492440000000     0.202490000000    -0.00613159 
C95      C      0.285930000000     0.494080000000     0.183730000000    -0.0526226  
C96      C      0.284680000000     0.487070000000     0.141980000000    -0.00605046 
C97      C      0.500490000000     0.549530000000     0.698840000000     0.285194   
C98      C      0.447250000000     0.645950000000     0.769690000000     0.283805   
C99      C      0.332140000000     0.508850000000     0.706590000000     0.285805   
C100     C      0.422320000000     0.504680000000     0.822320000000     0.282586   
C101     C      0.168960000000     0.489710000000     0.612920000000     0.285161   
C102     C      0.062240000000     0.460710000000     0.995790000000     0.283266   
C103     C      0.034320000000     0.515040000000     0.615350000000     0.283244   
C104     C      0.177990000000     0.610460000000     0.533360000000     0.2859     
C105     C      0.433160000000     0.794550000000     0.847640000000     0.280132   
C106     C      0.442910000000     0.912200000000     0.959040000000     0.282371   
C107     C      0.396500000000     0.908230000000     0.838170000000     0.280894   
C108     C      0.321150000000     0.770890000000     0.942910000000     0.282082   
C109     C      0.897760000000     0.453750000000     0.745590000000     0.282906   
C110     C      0.796820000000     0.441200000000     0.855070000000     0.286194   
C111     C      0.779520000000     0.304410000000     0.791220000000     0.284215   
C112     C      0.922870000000     0.398460000000     0.867820000000     0.284063   
C113     C      0.498380000000     0.444700000000     0.951100000000     0.28206    
C114     C      0.549560000000     0.346720000000     0.031580000000     0.283737   
C115     C      0.653820000000     0.461320000000     0.948220000000     0.283815   
C116     C      0.575540000000     0.487620000000     0.571450000000     0.282945   
C117     C      0.531510000000     0.184980000000     0.615660000000     0.282252   
C118     C      0.461490000000     0.039620000000     0.711080000000     0.280871   
C119     C      0.511590000000     0.047320000000     0.588350000000     0.282122   
C120     C      0.617130000000     0.155230000000     0.706930000000     0.280363   
C121     C      0.582510000000     0.295020000000     0.552810000000    -0.00638012 
C122     C      0.542530000000     0.303330000000     0.551020000000    -0.0523679  
C123     C      0.497810000000     0.271580000000     0.569970000000    -0.00615554 
C124     C      0.493730000000     0.232820000000     0.591130000000    -0.00693197 
C125     C      0.534210000000     0.225140000000     0.593320000000    -0.0521162  
C126     C      0.578370000000     0.256430000000     0.573550000000    -0.00712833 
C127     C      0.721900000000     0.450330000000     0.858830000000    -0.00601642 
C128     C      0.765070000000     0.455500000000     0.876900000000    -0.0534081  
C129     C      0.774510000000     0.469360000000     0.917400000000    -0.00590534 
C130     C      0.739860000000     0.474750000000     0.940080000000    -0.00661522 
C131     C      0.694920000000     0.465910000000     0.922750000000    -0.0521679  
C132     C      0.687070000000     0.455250000000     0.881570000000    -0.00655251 
C133     C      0.653520000000     0.200570000000     0.769850000000    -0.00681526 
C134     C      0.660700000000     0.186150000000     0.731900000000    -0.0514103  
C135     C      0.709010000000     0.206230000000     0.716500000000    -0.00708324 
C136     C      0.748720000000     0.242760000000     0.737230000000    -0.00605387 
C137     C      0.740660000000     0.259690000000     0.773640000000    -0.0523779  
C138     C      0.693020000000     0.236920000000     0.790460000000    -0.00614914 
C139     C      0.390820000000     0.924950000000     0.766220000000    -0.00541472 
C140     C      0.400360000000     0.940620000000     0.806120000000    -0.0521275  
C141     C      0.422440000000     0.988890000000     0.814240000000    -0.00470182 
C142     C      0.437670000000     0.021330000000     0.782780000000    -0.00593843 
C143     C      0.432630000000     0.005910000000     0.742880000000    -0.0517039  
C144     C      0.407650000000     0.957480000000     0.734750000000    -0.005229   
C145     C      0.436140000000     0.969880000000     0.002680000000    -0.00639094 
C146     C      0.463120000000     0.948080000000     0.991080000000    -0.0524353  
C147     C      0.507950000000     0.960510000000     0.010740000000    -0.00620499 
C148     C      0.524680000000     0.993420000000     0.542170000000    -0.00674934 
C149     C      0.496890000000     0.014440000000     0.554060000000    -0.051663   
C150     C      0.452820000000     0.002620000000     0.533600000000    -0.00730115 
C151     C      0.044930000000     0.455410000000     0.922340000000    -0.00609232 
C152     C      0.030460000000     0.436070000000     0.960930000000    -0.0522028  
C153     C      0.982300000000     0.398120000000     0.966620000000    -0.00636096 
C154     C      0.947820000000     0.383060000000     0.935240000000    -0.00624598 
C155     C      0.961140000000     0.405570000000     0.897690000000    -0.0525733  
C156     C      0.010670000000     0.440200000000     0.891000000000    -0.0061311  
C157     C      0.008860000000     0.532290000000     0.681700000000    -0.00613266 
C158     C      0.996000000000     0.507210000000     0.645350000000    -0.0523722  
C159     C      0.947510000000     0.469660000000     0.640310000000    -0.00604593 
C160     C      0.914010000000     0.454680000000     0.672180000000    -0.00636426 
C161     C      0.928360000000     0.476860000000     0.709780000000    -0.0518138  
C162     C      0.975280000000     0.517190000000     0.713720000000    -0.00646798 
C163     C      0.198000000000     0.677380000000     0.986020000000    -0.00579742 
C164     C      0.213720000000     0.654670000000     0.013190000000    -0.0530996  
C165     C      0.264630000000     0.672290000000     0.018570000000    -0.00562523 
C166     C      0.299110000000     0.710610000000     0.996310000000    -0.00775923 
C167     C      0.283650000000     0.732330000000     0.967980000000    -0.0517833  
C168     C      0.232740000000     0.715920000000     0.963510000000    -0.00720269 
C169     C      0.538300000000     0.502610000000     0.675150000000    -0.00605892 
C170     C      0.531320000000     0.541360000000     0.669810000000    -0.0530717  
C171     C      0.547920000000     0.567500000000     0.634070000000    -0.0061018  
C172     C      0.566900000000     0.552480000000     0.602850000000    -0.00629017 
C173     C      0.569090000000     0.510960000000     0.606930000000    -0.0525151  
C174     C      0.556730000000     0.487440000000     0.643960000000    -0.00581343 
C175     C      0.427950000000     0.439670000000     0.857020000000    -0.00649037 
C176     C      0.430400000000     0.483580000000     0.858720000000    -0.051895   
C177     C      0.447780000000     0.510430000000     0.893960000000    -0.00638168 
C178     C      0.466500000000     0.495800000000     0.925360000000    -0.00638627 
C179     C      0.468220000000     0.453970000000     0.922230000000    -0.0521182  
C180     C      0.446720000000     0.424950000000     0.888590000000    -0.0064651  
C181     C      0.421690000000     0.706720000000     0.769400000000    -0.00606573 
C182     C      0.451820000000     0.690140000000     0.785300000000    -0.052403   
C183     C      0.481300000000     0.712780000000     0.819070000000    -0.00597668 
C184     C      0.477800000000     0.749040000000     0.838290000000    -0.00721523 
C185     C      0.444820000000     0.763160000000     0.823930000000    -0.0513722  
C186     C      0.418280000000     0.742820000000     0.788430000000    -0.00712581 
C187     C      0.244650000000     0.481990000000     0.619090000000    -0.00623926 
C188     C      0.205350000000     0.484270000000     0.637500000000    -0.0527037  
C189     C      0.204940000000     0.487810000000     0.679580000000    -0.00615348 
C190     C      0.244730000000     0.492440000000     0.702490000000    -0.00613607 
C191     C      0.285930000000     0.494080000000     0.683730000000    -0.0526323  
C192     C      0.284680000000     0.487080000000     0.641980000000    -0.00604881 
Cd1      Cd     0.425940000000     0.552300000000     0.248540000000     0.508533   
Cd2      Cd     0.111110000000     0.518290000000     0.064870000000     0.508985   
Cd3      Cd     0.398370000000     0.844780000000     0.396230000000     0.512512   
Cd4      Cd     0.848840000000     0.399420000000     0.316110000000     0.508302   
Cd5      Cd     0.569730000000     0.436000000000     0.499830000000     0.509729   
Cd6      Cd     0.531340000000     0.107510000000     0.156060000000     0.512255   
Cd7      Cd     0.425940000000     0.552300000000     0.748540000000     0.508515   
Cd8      Cd     0.111110000000     0.518290000000     0.564870000000     0.508964   
Cd9      Cd     0.398370000000     0.844780000000     0.896230000000     0.51252    
Cd10     Cd     0.848840000000     0.399420000000     0.816110000000     0.50828    
Cd11     Cd     0.569730000000     0.436000000000     0.999830000000     0.509575   
Cd12     Cd     0.531340000000     0.107510000000     0.656060000000     0.512229   
H1       H      0.617450000000     0.318700000000     0.038470000000     0.0571421  
H2       H      0.466450000000     0.277270000000     0.069240000000     0.0571785  
H3       H      0.459130000000     0.209140000000     0.105900000000     0.0572264  
H4       H      0.610240000000     0.251520000000     0.074430000000     0.0579399  
H5       H      0.713630000000     0.439880000000     0.327660000000     0.0571273  
H6       H      0.807620000000     0.473900000000     0.432110000000     0.0567712  
H7       H      0.746970000000     0.483030000000     0.471720000000     0.0573462  
H8       H      0.652910000000     0.448510000000     0.367300000000     0.0564578  
H9       H      0.616830000000     0.185430000000     0.282790000000     0.0568774  
H10      H      0.715700000000     0.195780000000     0.187380000000     0.0572827  
H11      H      0.785090000000     0.259540000000     0.223550000000     0.0574519  
H12      H      0.685650000000     0.248800000000     0.318620000000     0.0570362  
H13      H      0.374400000000     0.887900000000     0.259350000000     0.0546187  
H14      H      0.430390000000     0.001620000000     0.344880000000     0.0526715  
H15      H      0.457330000000     0.058510000000     0.289760000000     0.055876   
H16      H      0.403660000000     0.944900000000     0.204140000000     0.0536576  
H17      H      0.401680000000     0.961510000000     0.487980000000     0.0577752  
H18      H      0.529540000000     0.944280000000     0.502330000000     0.0570985  
H19      H      0.558840000000     0.001920000000     0.057420000000     0.0574953  
H20      H      0.430520000000     0.018200000000     0.041770000000     0.058291   
H21      H      0.081940000000     0.484410000000     0.416940000000     0.0564949  
H22      H      0.970100000000     0.382460000000     0.496030000000     0.0576641  
H23      H      0.910010000000     0.356040000000     0.441220000000     0.0569956  
H24      H      0.022290000000     0.457880000000     0.362270000000     0.0574491  
H25      H      0.045910000000     0.561500000000     0.186390000000     0.0573969  
H26      H      0.936300000000     0.449980000000     0.112480000000     0.056697   
H27      H      0.877930000000     0.423830000000     0.168040000000     0.0572404  
H28      H      0.987310000000     0.535180000000     0.242280000000     0.0576803  
H29      H      0.158940000000     0.664450000000     0.481170000000     0.0570697  
H30      H      0.278000000000     0.655760000000     0.539370000000     0.0569955  
H31      H      0.338040000000     0.722570000000     0.500830000000     0.0580281  
H32      H      0.219750000000     0.732120000000     0.442050000000     0.0574525  
H33      H      0.526480000000     0.482040000000     0.202500000000     0.0574048  
H34      H      0.543240000000     0.597660000000     0.129180000000     0.0567898  
H35      H      0.576150000000     0.571250000000     0.074550000000     0.0569735  
H36      H      0.558520000000     0.455590000000     0.148060000000     0.0558482  
H37      H      0.414600000000     0.418130000000     0.330270000000     0.0575651  
H38      H      0.449660000000     0.544170000000     0.396390000000     0.0570523  
H39      H      0.482200000000     0.518650000000     0.451140000000     0.056679   
H40      H      0.447370000000     0.392440000000     0.385430000000     0.0573501  
H41      H      0.398860000000     0.690350000000     0.243210000000     0.0567943  
H42      H      0.504910000000     0.700750000000     0.332010000000     0.0573936  
H43      H      0.498800000000     0.764130000000     0.365520000000     0.0572974  
H44      H      0.392960000000     0.753240000000     0.276280000000     0.0572688  
H45      H      0.246010000000     0.479210000000     0.086760000000     0.0573206  
H46      H      0.175010000000     0.489380000000     0.194670000000     0.0565716  
H47      H      0.244470000000     0.497550000000     0.234610000000     0.0571882  
H48      H      0.315740000000     0.487830000000     0.126670000000     0.056805   
H49      H      0.617460000000     0.318710000000     0.538480000000     0.0570919  
H50      H      0.466450000000     0.277270000000     0.569240000000     0.0571293  
H51      H      0.459130000000     0.209130000000     0.605890000000     0.0572256  
H52      H      0.610250000000     0.251520000000     0.574440000000     0.0579288  
H53      H      0.713630000000     0.439880000000     0.827660000000     0.0571078  
H54      H      0.807620000000     0.473900000000     0.932110000000     0.0567302  
H55      H      0.746970000000     0.483020000000     0.971730000000     0.0573173  
H56      H      0.652910000000     0.448510000000     0.867300000000     0.0564714  
H57      H      0.616830000000     0.185430000000     0.782790000000     0.0568859  
H58      H      0.715700000000     0.195780000000     0.687380000000     0.0572787  
H59      H      0.785090000000     0.259540000000     0.723550000000     0.0574484  
H60      H      0.685650000000     0.248800000000     0.818620000000     0.0570237  
H61      H      0.374400000000     0.887900000000     0.759340000000     0.0546022  
H62      H      0.430390000000     0.001620000000     0.844880000000     0.0526594  
H63      H      0.457330000000     0.058510000000     0.789760000000     0.0558627  
H64      H      0.403650000000     0.944890000000     0.704140000000     0.0536393  
H65      H      0.401680000000     0.961510000000     0.987990000000     0.0575204  
H66      H      0.529540000000     0.944280000000     0.002330000000     0.057043   
H67      H      0.558840000000     0.001920000000     0.557430000000     0.0574244  
H68      H      0.430520000000     0.018200000000     0.541770000000     0.0581897  
H69      H      0.081940000000     0.484400000000     0.916940000000     0.0564894  
H70      H      0.970100000000     0.382460000000     0.996030000000     0.0576204  
H71      H      0.910010000000     0.356030000000     0.941220000000     0.0569794  
H72      H      0.022290000000     0.457880000000     0.862270000000     0.0574414  
H73      H      0.045910000000     0.561500000000     0.686400000000     0.0573804  
H74      H      0.936300000000     0.449980000000     0.612480000000     0.056677   
H75      H      0.877930000000     0.423830000000     0.668040000000     0.057238   
H76      H      0.987300000000     0.535180000000     0.742280000000     0.0576746  
H77      H      0.158940000000     0.664450000000     0.981170000000     0.0570595  
H78      H      0.278000000000     0.655760000000     0.039370000000     0.0569536  
H79      H      0.338040000000     0.722570000000     0.000820000000     0.0582481  
H80      H      0.219740000000     0.732120000000     0.942050000000     0.0574356  
H81      H      0.526480000000     0.482040000000     0.702500000000     0.0574065  
H82      H      0.543240000000     0.597660000000     0.629180000000     0.0567768  
H83      H      0.576150000000     0.571250000000     0.574550000000     0.0569427  
H84      H      0.558520000000     0.455590000000     0.648060000000     0.0558366  
H85      H      0.414590000000     0.418140000000     0.830270000000     0.0575799  
H86      H      0.449660000000     0.544180000000     0.896390000000     0.0570284  
H87      H      0.482200000000     0.518650000000     0.951140000000     0.0566666  
H88      H      0.447370000000     0.392440000000     0.885420000000     0.0573239  
H89      H      0.398860000000     0.690350000000     0.743210000000     0.0567851  
H90      H      0.504920000000     0.700760000000     0.832010000000     0.0573733  
H91      H      0.498800000000     0.764140000000     0.865520000000     0.0572843  
H92      H      0.392960000000     0.753250000000     0.776280000000     0.0572617  
H93      H      0.246010000000     0.479210000000     0.586760000000     0.0572914  
H94      H      0.175010000000     0.489380000000     0.694670000000     0.0565546  
H95      H      0.244470000000     0.497560000000     0.734610000000     0.0571806  
H96      H      0.315740000000     0.487830000000     0.626670000000     0.056785   
O1       O      0.411470000000     0.618980000000     0.247300000000    -0.23316    
O2       O      0.406510000000     0.482120000000     0.289770000000    -0.226201   
O3       O      0.490260000000     0.582060000000     0.194620000000    -0.230046   
O4       O      0.372750000000     0.521560000000     0.188860000000    -0.232702   
O5       O      0.334440000000     0.514380000000     0.244330000000    -0.229888   
O6       O      0.477920000000     0.520490000000     0.226660000000    -0.233426   
O7       O      0.475330000000     0.630610000000     0.281050000000    -0.225044   
O8       O      0.436940000000     0.548130000000     0.320780000000    -0.230006   
O9       O      0.096520000000     0.502950000000     0.492910000000    -0.232509   
O10      O      0.131640000000     0.594250000000     0.032240000000    -0.227326   
O11      O      0.166610000000     0.484970000000     0.075100000000    -0.22975    
O12      O      0.026200000000     0.484530000000     0.088800000000    -0.230818   
O13      O      0.078300000000     0.549040000000     0.117660000000    -0.227599   
O14      O      0.142660000000     0.505040000000     0.128160000000    -0.233205   
O15      O      0.052360000000     0.443650000000     0.530890000000    -0.225364   
O16      O      0.192420000000     0.585000000000     0.550370000000    -0.234211   
O17      O      0.467500000000     0.895300000000     0.442620000000    -0.222613   
O18      O      0.310350000000     0.792900000000     0.417190000000    -0.225607   
O19      O      0.457210000000     0.816400000000     0.378760000000    -0.225386   
O20      O      0.433190000000     0.918860000000     0.360790000000    -0.232377   
O21      O      0.359230000000     0.867400000000     0.342170000000    -0.22271    
O22      O      0.395300000000     0.797620000000     0.339390000000    -0.23541    
O23      O      0.399230000000     0.897140000000     0.446410000000    -0.235452   
O24      O      0.366400000000     0.783030000000     0.445920000000    -0.236609   
O25      O      0.789540000000     0.428930000000     0.318570000000    -0.232277   
O26      O      0.877200000000     0.370950000000     0.373980000000    -0.230268   
O27      O      0.861080000000     0.412560000000     0.243650000000    -0.228818   
O28      O      0.823070000000     0.326230000000     0.277280000000    -0.227062   
O29      O      0.769320000000     0.325580000000     0.317980000000    -0.232196   
O30      O      0.910430000000     0.471140000000     0.280420000000    -0.226739   
O31      O      0.829440000000     0.435890000000     0.372960000000    -0.232725   
O32      O      0.933680000000     0.424230000000     0.337050000000    -0.230727   
O33      O      0.514100000000     0.354150000000     0.524200000000    -0.22418    
O34      O      0.595280000000     0.509250000000     0.039130000000    -0.22411    
O35      O      0.499300000000     0.406540000000     0.451570000000    -0.225748   
O36      O      0.609660000000     0.439340000000     0.435770000000    -0.234286   
O37      O      0.659810000000     0.474070000000     0.484690000000    -0.227389   
O38      O      0.528850000000     0.476980000000     0.473880000000    -0.233253   
O39      O      0.592540000000     0.379610000000     0.023060000000    -0.234213   
O40      O      0.555790000000     0.443420000000     0.070500000000    -0.233971   
O41      O      0.467760000000     0.080870000000     0.209780000000    -0.223239   
O42      O      0.620360000000     0.138290000000     0.173520000000    -0.225111   
O43      O      0.494340000000     0.156980000000     0.136620000000    -0.225228   
O44      O      0.484190000000     0.063640000000     0.099140000000    -0.235594   
O45      O      0.550400000000     0.059480000000     0.109090000000    -0.223067   
O46      O      0.567180000000     0.176980000000     0.114560000000    -0.236431   
O47      O      0.486400000000     0.030250000000     0.186630000000    -0.232551   
O48      O      0.574740000000     0.148290000000     0.216390000000    -0.234981   
O49      O      0.411470000000     0.618980000000     0.747300000000    -0.233162   
O50      O      0.406510000000     0.482120000000     0.789760000000    -0.226159   
O51      O      0.490260000000     0.582060000000     0.694620000000    -0.230066   
O52      O      0.372750000000     0.521560000000     0.688860000000    -0.232713   
O53      O      0.334440000000     0.514380000000     0.744330000000    -0.229893   
O54      O      0.477930000000     0.520490000000     0.726660000000    -0.233443   
O55      O      0.475340000000     0.630620000000     0.781050000000    -0.225031   
O56      O      0.436940000000     0.548140000000     0.820770000000    -0.229912   
O57      O      0.096520000000     0.502950000000     0.992910000000    -0.232598   
O58      O      0.131630000000     0.594240000000     0.532240000000    -0.227306   
O59      O      0.166610000000     0.484970000000     0.575100000000    -0.229764   
O60      O      0.026200000000     0.484530000000     0.588800000000    -0.230793   
O61      O      0.078290000000     0.549040000000     0.617660000000    -0.227643   
O62      O      0.142660000000     0.505050000000     0.628150000000    -0.233191   
O63      O      0.052360000000     0.443640000000     0.030890000000    -0.225159   
O64      O      0.192420000000     0.585000000000     0.050370000000    -0.234287   
O65      O      0.467500000000     0.895300000000     0.942620000000    -0.222683   
O66      O      0.310350000000     0.792900000000     0.917190000000    -0.225666   
O67      O      0.457210000000     0.816400000000     0.878760000000    -0.225415   
O68      O      0.433180000000     0.918850000000     0.860800000000    -0.232323   
O69      O      0.359220000000     0.867400000000     0.842170000000    -0.222636   
O70      O      0.395300000000     0.797620000000     0.839390000000    -0.23543    
O71      O      0.399230000000     0.897140000000     0.946400000000    -0.235489   
O72      O      0.366400000000     0.783030000000     0.945920000000    -0.236637   
O73      O      0.789540000000     0.428930000000     0.818570000000    -0.232291   
O74      O      0.877200000000     0.370940000000     0.873980000000    -0.230261   
O75      O      0.861080000000     0.412560000000     0.743650000000    -0.228828   
O76      O      0.823070000000     0.326230000000     0.777280000000    -0.227039   
O77      O      0.769310000000     0.325580000000     0.817980000000    -0.232204   
O78      O      0.910430000000     0.471140000000     0.780420000000    -0.226753   
O79      O      0.829440000000     0.435890000000     0.872960000000    -0.232754   
O80      O      0.933680000000     0.424230000000     0.837050000000    -0.230724   
O81      O      0.514100000000     0.354150000000     0.024200000000    -0.224105   
O82      O      0.595280000000     0.509250000000     0.539130000000    -0.224201   
O83      O      0.499300000000     0.406540000000     0.951570000000    -0.225798   
O84      O      0.609650000000     0.439340000000     0.935770000000    -0.234232   
O85      O      0.659810000000     0.474070000000     0.984690000000    -0.227412   
O86      O      0.528840000000     0.476980000000     0.973880000000    -0.233324   
O87      O      0.592540000000     0.379610000000     0.523070000000    -0.2343     
O88      O      0.555790000000     0.443420000000     0.570500000000    -0.234027   
O89      O      0.467760000000     0.080870000000     0.709780000000    -0.223224   
O90      O      0.620360000000     0.138280000000     0.673520000000    -0.225041   
O91      O      0.494330000000     0.156980000000     0.636620000000    -0.225181   
O92      O      0.484190000000     0.063640000000     0.599140000000    -0.235617   
O93      O      0.550400000000     0.059480000000     0.609090000000    -0.223092   
O94      O      0.567180000000     0.176980000000     0.614560000000    -0.236433   
O95      O      0.486400000000     0.030250000000     0.686630000000    -0.232497   
O96      O      0.574730000000     0.148290000000     0.716390000000    -0.234885   


