data_structure

_audit_creation_method RASPA-1.0
_audit_creation_date 2023-5-22
_audit_author_name 'Poobodin Mano'

_cell_length_a    32.053
_cell_length_b    32.3082
_cell_length_c    27.3648
_cell_angle_alpha 90.0003
_cell_angle_beta  89.9998
_cell_angle_gamma 90.0015
_cell_volume      28338.3

_symmetry_cell_setting          triclinic
_symmetry_space_group_name_Hall 'P 1'
_symmetry_space_group_name_H-M  'P 1'
_symmetry_Int_Tables_number     1

_symmetry_equiv_pos_as_xyz 'x,y,z'

loop_
_atom_site_label
_atom_site_type_symbol
_atom_site_fract_x
_atom_site_fract_y
_atom_site_fract_z
_atom_site_charge
C1       C      0.812840000000     0.920950000000     0.413970000000     0.255714   
C2       C      0.919040000000     0.909150000000     0.295000000000     0.257137   
C3       C      0.885030000000     0.803780000000     0.421830000000     0.260344   
C4       C      0.812270000000     0.823580000000     0.273170000000     0.283035   
C5       C      0.897460000000     0.872030000000     0.686180000000     0.251828   
C6       C      0.775030000000     0.944600000000     0.674370000000     0.258739   
C7       C      0.781470000000     0.806790000000     0.608170000000     0.265783   
C8       C      0.778370000000     0.824150000000     0.775030000000     0.284877   
C9       C      0.724070000000     0.744630000000     0.114000000000     0.283535   
C10      C      0.589970000000     0.710980000000     0.033770000000     0.283373   
C11      C      0.715330000000     0.746880000000     0.950730000000     0.28228    
C12      C      0.687580000000     0.616460000000     0.034960000000     0.282492   
C13      C      0.885570000000     0.117190000000     0.332720000000     0.258734   
C14      C      0.928080000000     0.243220000000     0.382430000000     0.260772   
C15      C      0.809640000000     0.236270000000     0.272870000000     0.285472   
C16      C      0.790670000000     0.198000000000     0.429640000000     0.26473    
C17      C      0.790010000000     0.129700000000     0.660400000000     0.2568     
C18      C      0.919510000000     0.142240000000     0.743740000000     0.258884   
C19      C      0.875590000000     0.246050000000     0.635190000000     0.267439   
C20      C      0.805600000000     0.227240000000     0.786810000000     0.285588   
C21      C      0.590610000000     0.340300000000     0.023760000000     0.283103   
C22      C      0.721810000000     0.308260000000     0.947660000000     0.282835   
C23      C      0.686380000000     0.437630000000     0.031290000000     0.282494   
C24      C      0.722840000000     0.311030000000     0.110010000000     0.283306   
C25      C      0.103090000000     0.807970000000     0.411930000000     0.25567    
C26      C      0.095120000000     0.922260000000     0.309400000000     0.259804   
C27      C      0.217220000000     0.897370000000     0.412000000000     0.259304   
C28      C      0.193710000000     0.822530000000     0.270360000000     0.284377   
C29      C      0.135810000000     0.947930000000     0.735170000000     0.257304   
C30      C      0.250640000000     0.901060000000     0.637070000000     0.259026   
C31      C      0.214560000000     0.834090000000     0.783190000000     0.286668   
C32      C      0.123330000000     0.828460000000     0.642570000000     0.258908   
C33      C      0.409690000000     0.707670000000     0.031300000000     0.282427   
C34      C      0.283760000000     0.745920000000     0.948180000000     0.283059   
C35      C      0.311460000000     0.612520000000     0.026330000000     0.283061   
C36      C      0.277870000000     0.741340000000     0.109890000000     0.283067   
C37      C      0.129620000000     0.096270000000     0.281170000000     0.259245   
C38      C      0.228400000000     0.137540000000     0.407620000000     0.260091   
C39      C      0.206750000000     0.208400000000     0.253540000000     0.283547   
C40      C      0.111560000000     0.211760000000     0.390680000000     0.258929   
C41      C      0.112000000000     0.260340000000     0.640330000000     0.262137   
C42      C      0.095990000000     0.127970000000     0.733900000000     0.254129   
C43      C      0.196320000000     0.147650000000     0.617200000000     0.255155   
C44      C      0.191580000000     0.228880000000     0.772620000000     0.283192   
C45      C      0.282420000000     0.299410000000     0.094680000000     0.283027   
C46      C      0.410330000000     0.338450000000     0.017100000000     0.282186   
C47      C      0.278160000000     0.306840000000     0.933690000000     0.283207   
C48      C      0.311880000000     0.433690000000     0.019200000000     0.28292    
C49      C      0.194130000000     0.279770000000     0.841630000000    -0.00641521 
C50      C      0.213700000000     0.248740000000     0.813890000000    -0.0508319  
C51      C      0.254710000000     0.237040000000     0.825780000000    -0.0061011  
C52      C      0.275680000000     0.255960000000     0.864620000000    -0.00581131 
C53      C      0.256110000000     0.287010000000     0.892340000000    -0.0518672  
C54      C      0.215130000000     0.298730000000     0.880420000000    -0.0059127  
C55      C      0.209230000000     0.269690000000     0.197580000000    -0.0059798  
C56      C      0.226000000000     0.231620000000     0.212790000000    -0.0512579  
C57      C      0.261420000000     0.216000000000     0.188800000000    -0.00607897 
C58      C      0.279690000000     0.237990000000     0.150380000000    -0.00599624 
C59      C      0.262990000000     0.276110000000     0.135240000000    -0.0517947  
C60      C      0.227570000000     0.291740000000     0.159240000000    -0.00594221 
C61      C      0.138640000000     0.210710000000     0.519590000000    -0.0316654  
C62      C      0.095950000000     0.219150000000     0.523110000000     0.0266308  
C63      C      0.066790000000     0.188620000000     0.511170000000    -0.0370778  
C64      C      0.080330000000     0.149620000000     0.495690000000    -0.0346188  
C65      C      0.122990000000     0.141150000000     0.492240000000     0.0291424  
C66      C      0.152150000000     0.171670000000     0.504150000000    -0.0256834  
C67      C      0.307670000000     0.502730000000     0.977820000000    -0.00604896 
C68      C      0.309480000000     0.479400000000     0.021110000000    -0.0524307  
C69      C      0.310320000000     0.500210000000     0.066200000000    -0.00633894 
C70      C      0.310240000000     0.543460000000     0.067940000000    -0.0063913  
C71      C      0.309250000000     0.566790000000     0.024610000000    -0.0524358  
C72      C      0.307530000000     0.545980000000     0.979550000000    -0.00606069 
C73      C      0.106840000000     0.054960000000     0.629780000000    -0.0374975  
C74      C      0.141170000000     0.042920000000     0.657890000000     0.0337403  
C75      C      0.179540000000     0.035120000000     0.635410000000    -0.0336167  
C76      C      0.183620000000     0.039490000000     0.584770000000    -0.0349956  
C77      C      0.149280000000     0.051500000000     0.556660000000     0.0160215  
C78      C      0.110900000000     0.059190000000     0.579150000000    -0.0306476  
C79      C      0.270340000000     0.823780000000     0.845970000000    -0.00546594 
C80      C      0.231900000000     0.811770000000     0.825770000000    -0.0522872  
C81      C      0.210420000000     0.778100000000     0.846390000000    -0.00527237 
C82      C      0.227190000000     0.756730000000     0.886260000000    -0.00626064 
C83      C      0.265710000000     0.768670000000     0.906340000000    -0.0516585  
C84      C      0.287040000000     0.802480000000     0.885870000000    -0.00616339 
C85      C      0.072920000000     0.034710000000     0.455490000000    -0.030856   
C86      C      0.091860000000     0.997860000000     0.470500000000     0.00535893 
C87      C      0.129210000000     0.985000000000     0.448950000000    -0.0191189  
C88      C      0.147720000000     0.009100000000     0.412450000000    -0.0416391  
C89      C      0.128720000000     0.045860000000     0.397380000000     0.0523042  
C90      C      0.091350000000     0.058670000000     0.418820000000    -0.0508343  
C91      C      0.197570000000     0.766650000000     0.207040000000    -0.00567712 
C92      C      0.215150000000     0.801790000000     0.229230000000    -0.0510148  
C93      C      0.253510000000     0.816860000000     0.211870000000    -0.00608668 
C94      C      0.273880000000     0.797190000000     0.173140000000    -0.00588689 
C95      C      0.256320000000     0.762040000000     0.150950000000    -0.0519076  
C96      C      0.217950000000     0.746970000000     0.168300000000    -0.00588604 
C97      C      0.145400000000     0.864390000000     0.519840000000    -0.0357028  
C98      C      0.176410000000     0.890820000000     0.537650000000     0.0369229  
C99      C      0.165370000000     0.927270000000     0.561960000000    -0.0388785  
C100     C      0.123310000000     0.937260000000     0.568500000000    -0.0257792  
C101     C      0.092340000000     0.910940000000     0.550450000000     0.0179418  
C102     C      0.103320000000     0.874520000000     0.526140000000    -0.0275758  
C103     C      0.477580000000     0.332010000000     0.063060000000    -0.0065253  
C104     C      0.456450000000     0.336950000000     0.018430000000    -0.0521077  
C105     C      0.479830000000     0.341600000000     0.975330000000    -0.00636391 
C106     C      0.523440000000     0.342080000000     0.976970000000    -0.00600806 
C107     C      0.544550000000     0.337840000000     0.021720000000    -0.0526222  
C108     C      0.521160000000     0.332420000000     0.064680000000    -0.00622144 
C109     C      0.008410000000     0.117090000000     0.599560000000    -0.0318572  
C110     C      0.999130000000     0.095860000000     0.556380000000    -0.00313208 
C111     C      0.974430000000     0.060240000000     0.557750000000    -0.0360952  
C112     C      0.958740000000     0.046020000000     0.602330000000    -0.0455217  
C113     C      0.968120000000     0.067100000000     0.645560000000     0.0199914  
C114     C      0.992960000000     0.102630000000     0.644200000000    -0.035922   
C115     C      0.748840000000     0.229920000000     0.849620000000    -0.00582749 
C116     C      0.784110000000     0.248030000000     0.827870000000    -0.0519187  
C117     C      0.798690000000     0.286150000000     0.845770000000    -0.00531637 
C118     C      0.778430000000     0.305720000000     0.884660000000    -0.00606548 
C119     C      0.743180000000     0.287590000000     0.906440000000    -0.0516209  
C120     C      0.728580000000     0.249490000000     0.888500000000    -0.00632954 
C121     C      0.978250000000     0.148170000000     0.430290000000    -0.0417689  
C122     C      0.000750000000     0.163580000000     0.390500000000     0.0329745  
C123     C      0.011240000000     0.137430000000     0.351690000000    -0.0357271  
C124     C      0.999420000000     0.095760000000     0.352800000000    -0.0299377  
C125     C      0.977000000000     0.080370000000     0.392640000000     0.0023362  
C126     C      0.966280000000     0.106560000000     0.431300000000    -0.0280278  
C127     C      0.800290000000     0.293780000000     0.212550000000    -0.00551504 
C128     C      0.787300000000     0.255410000000     0.231330000000    -0.0520596  
C129     C      0.752840000000     0.235490000000     0.209970000000    -0.00569356 
C130     C      0.731810000000     0.253590000000     0.170640000000    -0.00623916 
C131     C      0.744880000000     0.291910000000     0.151780000000    -0.0519055  
C132     C      0.779340000000     0.311820000000     0.173150000000    -0.00607054 
C133     C      0.878330000000     0.151980000000     0.502360000000    -0.0368788  
C134     C      0.849250000000     0.119750000000     0.502770000000     0.034893   
C135     C      0.844990000000     0.094810000000     0.544220000000    -0.0405037  
C136     C      0.869860000000     0.102140000000     0.585290000000    -0.037982   
C137     C      0.898760000000     0.134530000000     0.584960000000     0.0427061  
C138     C      0.903090000000     0.159410000000     0.543510000000    -0.0375063  
C139     C      0.522060000000     0.710040000000     0.988710000000    -0.00598139 
C140     C      0.543840000000     0.711850000000     0.033220000000    -0.05277    
C141     C      0.521130000000     0.713310000000     0.077120000000    -0.00618011 
C142     C      0.477520000000     0.712380000000     0.076530000000    -0.00647406 
C143     C      0.455760000000     0.709990000000     0.032020000000    -0.0522167  
C144     C      0.478480000000     0.709120000000     0.988120000000    -0.00626022 
C145     C      0.696570000000     0.549250000000     0.990690000000    -0.00600883 
C146     C      0.689290000000     0.570730000000     0.034530000000    -0.0524222  
C147     C      0.682290000000     0.548070000000     0.077590000000    -0.00641407 
C148     C      0.681870000000     0.504810000000     0.076660000000    -0.00647365 
C149     C      0.688450000000     0.483340000000     0.032650000000    -0.0522172  
C150     C      0.696160000000     0.506000000000     0.989770000000    -0.00603469 
C151     C      0.993150000000     0.902910000000     0.619490000000    -0.0324481  
C152     C      0.003110000000     0.940290000000     0.596600000000     0.0024744  
C153     C      0.026650000000     0.970070000000     0.621290000000    -0.0350685  
C154     C      0.039930000000     0.962680000000     0.669160000000    -0.039748   
C155     C      0.030000000000     0.925300000000     0.692120000000     0.0299698  
C156     C      0.006720000000     0.895360000000     0.667260000000    -0.0391846  
C157     C      0.856510000000     0.023310000000     0.702390000000    -0.028702   
C158     C      0.877870000000     0.992330000000     0.677030000000     0.0222266  
C159     C      0.916970000000     0.979060000000     0.693330000000    -0.0343453  
C160     C      0.934810000000     0.996830000000     0.734960000000    -0.0361679  
C161     C      0.913430000000     0.027810000000     0.760380000000     0.0233514  
C162     C      0.874260000000     0.041010000000     0.744150000000    -0.0297804  
C163     C      0.732020000000     0.824400000000     0.848700000000    -0.00577405 
C164     C      0.762970000000     0.804840000000     0.820600000000    -0.0517321  
C165     C      0.778790000000     0.766490000000     0.836220000000    -0.00568588 
C166     C      0.763690000000     0.747920000000     0.878850000000    -0.00629454 
C167     C      0.732390000000     0.767250000000     0.906640000000    -0.0513594  
C168     C      0.716840000000     0.805770000000     0.891240000000    -0.00637921 
C169     C      0.000620000000     0.948370000000     0.463380000000    -0.0315078  
C170     C      0.999170000000     0.907320000000     0.479390000000     0.0104332  
C171     C      0.000010000000     0.874980000000     0.445520000000    -0.021432   
C172     C      0.002370000000     0.883710000000     0.395530000000    -0.0231262  
C173     C      0.003860000000     0.924770000000     0.379500000000     0.0298201  
C174     C      0.003010000000     0.957100000000     0.413390000000    -0.0391272  
C175     C      0.829090000000     0.027580000000     0.372830000000    -0.0369183  
C176     C      0.865300000000     0.013680000000     0.349550000000     0.0395997  
C177     C      0.901430000000     0.006140000000     0.376760000000    -0.0349959  
C178     C      0.901330000000     0.012500000000     0.427330000000    -0.0248513  
C179     C      0.865160000000     0.026430000000     0.450550000000     0.00984794 
C180     C      0.829030000000     0.033970000000     0.423390000000    -0.0241814  
C181     C      0.805720000000     0.767360000000     0.210550000000    -0.0062822  
C182     C      0.789530000000     0.803150000000     0.232760000000    -0.051186   
C183     C      0.751570000000     0.819440000000     0.215700000000    -0.00626471 
C184     C      0.730300000000     0.800400000000     0.177180000000    -0.00594503 
C185     C      0.746550000000     0.764690000000     0.154880000000    -0.0521057  
C186     C      0.784460000000     0.748330000000     0.172000000000    -0.00602844 
C187     C      0.825960000000     0.906970000000     0.542390000000    -0.0278356  
C188     C      0.827760000000     0.948770000000     0.555460000000     0.0272262  
C189     C      0.865720000000     0.969980000000     0.553640000000    -0.0375852  
C190     C      0.901880000000     0.949440000000     0.538530000000    -0.0335347  
C191     C      0.900120000000     0.907650000000     0.525490000000     0.0262169  
C192     C      0.862190000000     0.886370000000     0.527470000000    -0.0217236  
Cd1      Cd     0.857350000000     0.864260000000     0.351030000000     0.505596   
Cd2      Cd     0.807890000000     0.861800000000     0.685700000000     0.505546   
Cd3      Cd     0.679880000000     0.705460000000     0.034390000000     0.50954    
Cd4      Cd     0.853510000000     0.198820000000     0.353930000000     0.50382    
Cd5      Cd     0.847630000000     0.186340000000     0.706770000000     0.504957   
Cd6      Cd     0.680300000000     0.348600000000     0.028260000000     0.509656   
Cd7      Cd     0.152240000000     0.862630000000     0.351170000000     0.504755   
Cd8      Cd     0.181530000000     0.877330000000     0.699280000000     0.505333   
Cd9      Cd     0.319920000000     0.701550000000     0.029290000000     0.509682   
Cd10     Cd     0.169440000000     0.163280000000     0.333470000000     0.504944   
Cd11     Cd     0.148850000000     0.190920000000     0.691110000000     0.506025   
Cd12     Cd     0.320430000000     0.344690000000     0.015540000000     0.509512   
H1       H      0.162580000000     0.289500000000     0.833360000000     0.0588495  
H2       H      0.270650000000     0.213240000000     0.805080000000     0.0596668  
H3       H      0.307230000000     0.246220000000     0.872910000000     0.058703   
H4       H      0.199170000000     0.322520000000     0.901120000000     0.0584632  
H5       H      0.181960000000     0.282550000000     0.215360000000     0.0591905  
H6       H      0.275060000000     0.186740000000     0.199660000000     0.0590487  
H7       H      0.306970000000     0.225140000000     0.132630000000     0.0585029  
H8       H      0.213950000000     0.321010000000     0.148390000000     0.0587286  
H9       H      0.161130000000     0.234400000000     0.528870000000     0.0634871  
H10      H      0.033790000000     0.195240000000     0.513940000000     0.0461364  
H11      H      0.057880000000     0.126010000000     0.486250000000     0.0427756  
H12      H      0.185130000000     0.164990000000     0.501550000000     0.0539028  
H13      H      0.306930000000     0.487610000000     0.942500000000     0.0582601  
H14      H      0.311670000000     0.483100000000     0.100210000000     0.0584073  
H15      H      0.311510000000     0.558580000000     0.103230000000     0.0582841  
H16      H      0.306700000000     0.563090000000     0.945520000000     0.0583874  
H17      H      0.077210000000     0.060880000000     0.647300000000     0.0475681  
H18      H      0.206010000000     0.025710000000     0.657270000000     0.0636855  
H19      H      0.213250000000     0.033480000000     0.567230000000     0.0489588  
H20      H      0.084420000000     0.068350000000     0.557270000000     0.0427691  
H21      H      0.287630000000     0.849610000000     0.830930000000     0.0586028  
H22      H      0.180740000000     0.768110000000     0.831620000000     0.0585056  
H23      H      0.210000000000     0.730810000000     0.901250000000     0.0585305  
H24      H      0.316790000000     0.812450000000     0.900510000000     0.058701   
H25      H      0.044010000000     0.044560000000     0.472240000000     0.0343172  
H26      H      0.143680000000     0.956380000000     0.460420000000     0.0534252  
H27      H      0.176670000000     0.999370000000     0.395740000000     0.0729686  
H28      H      0.076970000000     0.087250000000     0.407130000000     0.059894   
H29      H      0.168040000000     0.754280000000     0.219600000000     0.0595669  
H30      H      0.267880000000     0.843870000000     0.228210000000     0.0587411  
H31      H      0.303410000000     0.809570000000     0.160590000000     0.0585872  
H32      H      0.203600000000     0.719960000000     0.151950000000     0.0585942  
H33      H      0.154060000000     0.836110000000     0.501290000000     0.066685   
H34      H      0.189420000000     0.947670000000     0.575620000000     0.0557197  
H35      H      0.114670000000     0.965350000000     0.587380000000     0.0518747  
H36      H      0.079210000000     0.854150000000     0.512490000000     0.0507756  
H37      H      0.460450000000     0.328290000000     0.096900000000     0.0583785  
H38      H      0.464470000000     0.345440000000     0.940370000000     0.0582896  
H39      H      0.540570000000     0.346240000000     0.943210000000     0.0580498  
H40      H      0.536500000000     0.329040000000     0.099730000000     0.0583294  
H41      H      0.027650000000     0.144570000000     0.598380000000     0.0564466  
H42      H      0.967490000000     0.043710000000     0.524370000000     0.0325263  
H43      H      0.939580000000     0.018580000000     0.603420000000     0.0420521  
H44      H      0.000130000000     0.118870000000     0.677720000000     0.0607514  
H45      H      0.736840000000     0.200560000000     0.836660000000     0.0580036  
H46      H      0.825800000000     0.300890000000     0.829780000000     0.0594642  
H47      H      0.790440000000     0.335070000000     0.897650000000     0.0590139  
H48      H      0.701490000000     0.234730000000     0.904510000000     0.0582427  
H49      H      0.970060000000     0.168530000000     0.460150000000     0.0472329  
H50      H      0.028580000000     0.149490000000     0.320920000000     0.0708918  
H51      H      0.007650000000     0.075370000000     0.322970000000     0.0480522  
H52      H      0.948390000000     0.094680000000     0.461660000000     0.042595   
H53      H      0.826750000000     0.309900000000     0.228190000000     0.0591746  
H54      H      0.742060000000     0.205900000000     0.223640000000     0.0580658  
H55      H      0.705370000000     0.237480000000     0.154950000000     0.0582845  
H56      H      0.790160000000     0.341390000000     0.159480000000     0.0586706  
H57      H      0.881630000000     0.171060000000     0.470170000000     0.069142   
H58      H      0.822490000000     0.069860000000     0.544380000000     0.0460037  
H59      H      0.866790000000     0.082850000000     0.617380000000     0.0538736  
H60      H      0.925650000000     0.184310000000     0.543350000000     0.0550286  
H61      H      0.538650000000     0.708900000000     0.954250000000     0.0581235  
H62      H      0.537040000000     0.714720000000     0.112000000000     0.058297   
H63      H      0.460880000000     0.713160000000     0.110970000000     0.058356   
H64      H      0.462630000000     0.707360000000     0.953220000000     0.0583478  
H65      H      0.702080000000     0.565830000000     0.956900000000     0.0585416  
H66      H      0.676590000000     0.563730000000     0.111950000000     0.0580776  
H67      H      0.675920000000     0.488220000000     0.110340000000     0.0581659  
H68      H      0.701420000000     0.490350000000     0.955300000000     0.0585751  
H69      H      0.974960000000     0.879930000000     0.600180000000     0.0483678  
H70      H      0.034770000000     0.998660000000     0.603130000000     0.0397564  
H71      H      0.057940000000     0.985790000000     0.688440000000     0.0473403  
H72      H      0.999110000000     0.866460000000     0.685120000000     0.0547065  
H73      H      0.826260000000     0.033470000000     0.689620000000     0.0550704  
H74      H      0.933470000000     0.955330000000     0.673370000000     0.0486593  
H75      H      0.965170000000     0.986760000000     0.747490000000     0.0488192  
H76      H      0.857800000000     0.064970000000     0.763910000000     0.0649777  
H77      H      0.719230000000     0.853990000000     0.837660000000     0.0585825  
H78      H      0.802710000000     0.750680000000     0.815410000000     0.0587804  
H79      H      0.776290000000     0.718210000000     0.889730000000     0.0588628  
H80      H      0.692720000000     0.821460000000     0.911870000000     0.0583175  
H81      H      0.999970000000     0.973320000000     0.489720000000     0.0351348  
H82      H      0.998930000000     0.843260000000     0.458070000000     0.0533001  
H83      H      0.003150000000     0.858750000000     0.369200000000     0.0707994  
H84      H      0.004210000000     0.988820000000     0.400850000000     0.0433882  
H85      H      0.801210000000     0.033400000000     0.351660000000     0.0603406  
H86      H      0.929370000000     0.995450000000     0.358580000000     0.0507705  
H87      H      0.929180000000     0.006880000000     0.448570000000     0.0376923  
H88      H      0.801110000000     0.044750000000     0.441570000000     0.0501567  
H89      H      0.834910000000     0.754060000000     0.222850000000     0.0587429  
H90      H      0.738280000000     0.846990000000     0.232040000000     0.0590853  
H91      H      0.701150000000     0.813750000000     0.164840000000     0.0585259  
H92      H      0.797770000000     0.720830000000     0.155610000000     0.0582837  
H93      H      0.796530000000     0.890640000000     0.543840000000     0.0638272  
H94      H      0.867000000000     0.002310000000     0.563750000000     0.0404696  
H95      H      0.931190000000     0.965870000000     0.536740000000     0.0378877  
H96      H      0.860920000000     0.854040000000     0.517350000000     0.0602606  
O1       O      0.882680000000     0.923090000000     0.301750000000    -0.228711   
O2       O      0.846510000000     0.809660000000     0.289240000000    -0.229954   
O3       O      0.852180000000     0.920870000000     0.411180000000    -0.232846   
O4       O      0.908520000000     0.832550000000     0.407020000000    -0.229609   
O5       O      0.848720000000     0.802950000000     0.403880000000    -0.222592   
O6       O      0.794060000000     0.894780000000     0.387640000000    -0.217508   
O7       O      0.926840000000     0.874440000000     0.314140000000    -0.224626   
O8       O      0.798750000000     0.856170000000     0.293330000000    -0.226101   
O9       O      0.798820000000     0.934940000000     0.709350000000    -0.224992   
O10      O      0.804800000000     0.806440000000     0.747790000000    -0.227998   
O11      O      0.875260000000     0.883810000000     0.650660000000    -0.232387   
O12      O      0.819290000000     0.816410000000     0.614300000000    -0.228852   
O13      O      0.755870000000     0.822570000000     0.637880000000    -0.220442   
O14      O      0.878240000000     0.855640000000     0.721530000000    -0.219528   
O15      O      0.766420000000     0.915960000000     0.644620000000    -0.22759    
O16      O      0.765600000000     0.859210000000     0.760900000000    -0.229089   
O17      O      0.610580000000     0.711920000000     0.073170000000    -0.228349   
O18      O      0.692150000000     0.637500000000     0.996350000000    -0.227031   
O19      O      0.689740000000     0.758510000000     0.098150000000    -0.229256   
O20      O      0.685380000000     0.762330000000     0.974710000000    -0.229453   
O21      O      0.729240000000     0.712550000000     0.965900000000    -0.22674    
O22      O      0.738050000000     0.712650000000     0.092950000000    -0.231288   
O23      O      0.611000000000     0.708130000000     0.994820000000    -0.230799   
O24      O      0.680160000000     0.636670000000     0.073590000000    -0.230308   
O25      O      0.898490000000     0.236810000000     0.411930000000    -0.229698   
O26      O      0.801900000000     0.165360000000     0.407870000000    -0.228461   
O27      O      0.874900000000     0.141940000000     0.299250000000    -0.220966   
O28      O      0.799640000000     0.201120000000     0.289470000000    -0.230558   
O29      O      0.839900000000     0.254090000000     0.293760000000    -0.228577   
O30      O      0.881340000000     0.130170000000     0.375980000000    -0.235485   
O31      O      0.923220000000     0.229090000000     0.339780000000    -0.22188    
O32      O      0.808510000000     0.231020000000     0.416390000000    -0.219221   
O33      O      0.903550000000     0.134000000000     0.702680000000    -0.235393   
O34      O      0.837440000000     0.242730000000     0.766540000000    -0.22697    
O35      O      0.807470000000     0.121380000000     0.700590000000    -0.231122   
O36      O      0.899310000000     0.217960000000     0.651290000000    -0.227927   
O37      O      0.838960000000     0.246550000000     0.652230000000    -0.215863   
O38      O      0.799280000000     0.164180000000     0.641550000000    -0.222959   
O39      O      0.902200000000     0.170860000000     0.767780000000    -0.221333   
O40      O      0.793220000000     0.192900000000     0.770050000000    -0.231684   
O41      O      0.734340000000     0.342500000000     0.964620000000    -0.227646   
O42      O      0.734930000000     0.344750000000     0.091310000000    -0.230479   
O43      O      0.612340000000     0.346990000000     0.986000000000    -0.230721   
O44      O      0.678580000000     0.416490000000     0.069120000000    -0.229934   
O45      O      0.691570000000     0.417530000000     0.992070000000    -0.226934   
O46      O      0.610420000000     0.336940000000     0.063560000000    -0.22868    
O47      O      0.690010000000     0.292690000000     0.967970000000    -0.230108   
O48      O      0.690930000000     0.294590000000     0.090910000000    -0.228662   
O49      O      0.106060000000     0.890040000000     0.286600000000    -0.222449   
O50      O      0.208950000000     0.854070000000     0.291170000000    -0.230361   
O51      O      0.094290000000     0.845840000000     0.406980000000    -0.237173   
O52      O      0.200790000000     0.917570000000     0.377500000000    -0.226557   
O53      O      0.203660000000     0.861060000000     0.418330000000    -0.22882    
O54      O      0.134740000000     0.795360000000     0.388840000000    -0.216747   
O55      O      0.110540000000     0.926860000000     0.351520000000    -0.228699   
O56      O      0.159190000000     0.809630000000     0.286840000000    -0.224806   
O57      O      0.233510000000     0.865970000000     0.633950000000    -0.222789   
O58      O      0.114880000000     0.864770000000     0.656460000000    -0.231149   
O59      O      0.144590000000     0.917530000000     0.762380000000    -0.221985   
O60      O      0.179590000000     0.824770000000     0.764820000000    -0.228901   
O61      O      0.234060000000     0.863440000000     0.762860000000    -0.231395   
O62      O      0.148120000000     0.945580000000     0.691370000000    -0.231585   
O63      O      0.235730000000     0.925250000000     0.668820000000    -0.226232   
O64      O      0.158710000000     0.814760000000     0.654830000000    -0.216538   
O65      O      0.317920000000     0.756720000000     0.967490000000    -0.229183   
O66      O      0.262880000000     0.709660000000     0.089130000000    -0.229657   
O67      O      0.388290000000     0.707730000000     0.070160000000    -0.227938   
O68      O      0.311150000000     0.634270000000     0.987910000000    -0.22916    
O69      O      0.315060000000     0.632000000000     0.066210000000    -0.23031    
O70      O      0.389510000000     0.704930000000     0.991710000000    -0.228874   
O71      O      0.266140000000     0.714480000000     0.966470000000    -0.228568   
O72      O      0.312320000000     0.754440000000     0.093450000000    -0.229012   
O73      O      0.193830000000     0.119500000000     0.401720000000    -0.233667   
O74      O      0.145900000000     0.226420000000     0.376060000000    -0.220185   
O75      O      0.164940000000     0.092120000000     0.301070000000    -0.222741   
O76      O      0.222030000000     0.174800000000     0.269130000000    -0.228204   
O77      O      0.174160000000     0.221080000000     0.274880000000    -0.22772    
O78      O      0.112740000000     0.131410000000     0.285430000000    -0.228777   
O79      O      0.235710000000     0.167520000000     0.379280000000    -0.219934   
O80      O      0.104120000000     0.174670000000     0.378980000000    -0.236012   
O81      O      0.082780000000     0.152610000000     0.701580000000    -0.22681    
O82      O      0.208780000000     0.201610000000     0.746260000000    -0.224095   
O83      O      0.090840000000     0.237170000000     0.668040000000    -0.218174   
O84      O      0.157050000000     0.145210000000     0.619630000000    -0.234467   
O85      O      0.213670000000     0.170190000000     0.648950000000    -0.216158   
O86      O      0.150200000000     0.251390000000     0.636070000000    -0.228239   
O87      O      0.133640000000     0.132430000000     0.746450000000    -0.224351   
O88      O      0.154490000000     0.238400000000     0.761480000000    -0.230823   
O89      O      0.388680000000     0.336300000000     0.055660000000    -0.229332   
O90      O      0.313130000000     0.414220000000     0.979120000000    -0.229942   
O91      O      0.313520000000     0.285430000000     0.071480000000    -0.229625   
O92      O      0.314660000000     0.296220000000     0.946100000000    -0.228353   
O93      O      0.261420000000     0.335150000000     0.958880000000    -0.230357   
O94      O      0.268900000000     0.334420000000     0.081280000000    -0.227885   
O95      O      0.390350000000     0.343020000000     0.977570000000    -0.227965   
O96      O      0.314020000000     0.411950000000     0.057550000000    -0.228958   


