data_structure

_audit_creation_method RASPA-1.0
_audit_creation_date 2023-5-22
_audit_author_name 'Poobodin Mano'

_cell_length_a    28.5741
_cell_length_b    28.7225
_cell_length_c    58.149
_cell_angle_alpha 90.0018
_cell_angle_beta  90.0002
_cell_angle_gamma 89.9996
_cell_volume      47724

_symmetry_cell_setting          triclinic
_symmetry_space_group_name_Hall 'P 1'
_symmetry_space_group_name_H-M  'P 1'
_symmetry_Int_Tables_number     1

_symmetry_equiv_pos_as_xyz 'x,y,z'

loop_
_atom_site_label
_atom_site_type_symbol
_atom_site_fract_x
_atom_site_fract_y
_atom_site_fract_z
_atom_site_charge
C1       C      0.468870000000     0.811280000000     0.623610000000     0.287343   
C2       C      0.468990000000     0.631470000000     0.623520000000     0.28708    
C3       C      0.546110000000     0.716460000000     0.575180000000     0.287272   
C4       C      0.560690000000     0.722460000000     0.665150000000     0.287284   
C5       C      0.322890000000     0.131340000000     0.625600000000     0.287317   
C6       C      0.323280000000     0.311120000000     0.625350000000     0.287272   
C7       C      0.242710000000     0.225600000000     0.578390000000     0.287235   
C8       C      0.233730000000     0.220000000000     0.668500000000     0.287344   
C9       C      0.548810000000     0.543500000000     0.363150000000     0.2872     
C10      C      0.728990000000     0.542860000000     0.373720000000     0.287168   
C11      C      0.646880000000     0.628110000000     0.323700000000     0.28754    
C12      C      0.623960000000     0.626070000000     0.413140000000     0.287651   
C13      C      0.051790000000     0.401490000000     0.379370000000     0.287434   
C14      C      0.226240000000     0.401520000000     0.363220000000     0.286586   
C15      C      0.157130000000     0.314490000000     0.417060000000     0.288741   
C16      C      0.120950000000     0.307370000000     0.329820000000     0.28847    
C17      C      0.740080000000     0.895740000000     0.873800000000     0.286914   
C18      C      0.560840000000     0.894790000000     0.869350000000     0.286534   
C19      C      0.649000000000     0.808220000000     0.825190000000     0.28864    
C20      C      0.651150000000     0.799900000000     0.913360000000     0.288289   
C21      C      0.060680000000     0.044010000000     0.876810000000     0.286925   
C22      C      0.240250000000     0.044120000000     0.871850000000     0.286623   
C23      C      0.151120000000     0.132260000000     0.829070000000     0.288667   
C24      C      0.151280000000     0.136540000000     0.917600000000     0.287973   
C25      C      0.971110000000     0.125080000000     0.116390000000     0.286238   
C26      C      0.971170000000     0.304570000000     0.120720000000     0.286164   
C27      C      0.048430000000     0.216050000000     0.167840000000     0.288399   
C28      C      0.069220000000     0.215800000000     0.079120000000     0.287768   
C29      C      0.825440000000     0.804500000000     0.115500000000     0.286673   
C30      C      0.825090000000     0.625530000000     0.119220000000     0.286214   
C31      C      0.736760000000     0.712490000000     0.163150000000     0.288448   
C32      C      0.731440000000     0.716420000000     0.074920000000     0.288111   
C33      C      0.881730000000     0.401770000000     0.125400000000    -0.0555259  
C34      C      0.909000000000     0.441430000000     0.120480000000     0.0214691  
C35      C      0.956830000000     0.435290000000     0.115600000000    -0.0557777  
C36      C      0.976850000000     0.390900000000     0.115770000000     0.011983   
C37      C      0.949510000000     0.351400000000     0.120550000000    -0.0711994  
C38      C      0.901690000000     0.357260000000     0.125290000000     0.0117369  
C39      C      0.887650000000     0.488870000000     0.120230000000     0.0215462  
C40      C      0.841740000000     0.495500000000     0.112130000000    -0.0558624  
C41      C      0.821610000000     0.539830000000     0.111890000000     0.012107   
C42      C      0.847000000000     0.578820000000     0.119470000000    -0.0713617  
C43      C      0.892980000000     0.572510000000     0.127390000000     0.0118597  
C44      C      0.912980000000     0.528010000000     0.127900000000    -0.0555344  
C45      C      0.913790000000     0.901490000000     0.106330000000    -0.0558107  
C46      C      0.887720000000     0.941110000000     0.112670000000     0.0215747  
C47      C      0.841020000000     0.935140000000     0.119670000000    -0.055977   
C48      C      0.820970000000     0.890830000000     0.120410000000     0.0120792  
C49      C      0.847150000000     0.851250000000     0.114320000000    -0.0720876  
C50      C      0.893750000000     0.857020000000     0.107210000000     0.011919   
C51      C      0.909400000000     0.988310000000     0.112710000000     0.0215188  
C52      C      0.955880000000     0.994340000000     0.120030000000    -0.0559206  
C53      C      0.975820000000     0.038680000000     0.120950000000     0.0119576  
C54      C      0.949750000000     0.078230000000     0.114700000000    -0.0719604  
C55      C      0.903430000000     0.072370000000     0.107180000000     0.0118452  
C56      C      0.883510000000     0.027880000000     0.106130000000    -0.0557467  
C57      C      0.104430000000     0.202040000000     0.968930000000    -0.0556748  
C58      C      0.135210000000     0.187770000000     0.986530000000     0.0220872  
C59      C      0.174020000000     0.160100000000     0.980530000000    -0.0561818  
C60      C      0.180100000000     0.144690000000     0.957930000000     0.0136883  
C61      C      0.148300000000     0.157630000000     0.940680000000    -0.0733254  
C62      C      0.111250000000     0.187580000000     0.946220000000     0.0131454  
C63      C      0.124610000000     0.198570000000     0.011130000000     0.02213    
C64      C      0.100200000000     0.239370000000     0.017170000000    -0.0562232  
C65      C      0.083900000000     0.245910000000     0.039590000000     0.0140903  
C66      C      0.092830000000     0.212550000000     0.056650000000    -0.0735039  
C67      C      0.120090000000     0.173510000000     0.051200000000     0.0133575  
C68      C      0.135350000000     0.166280000000     0.028640000000    -0.0556896  
C69      C      0.628550000000     0.772110000000     0.975840000000    -0.0562304  
C70      C      0.668810000000     0.746470000000     0.981750000000     0.0220964  
C71      C      0.700660000000     0.734710000000     0.964160000000    -0.0557871  
C72      C      0.693420000000     0.749750000000     0.941580000000     0.0132917  
C73      C      0.654810000000     0.777810000000     0.936170000000    -0.0736667  
C74      C      0.621990000000     0.788130000000     0.953390000000     0.0138827  
C75      C      0.679520000000     0.735250000000     0.006280000000     0.0220543  
C76      C      0.666550000000     0.766130000000     0.024030000000    -0.0557107  
C77      C      0.681110000000     0.758470000000     0.046660000000     0.0132406  
C78      C      0.709890000000     0.720430000000     0.051970000000    -0.0734652  
C79      C      0.721410000000     0.688550000000     0.034590000000     0.0138578  
C80      C      0.705860000000     0.695490000000     0.012070000000    -0.056201   
C81      C      0.464000000000     0.984180000000     0.862680000000    -0.055619   
C82      C      0.424150000000     0.958440000000     0.869190000000     0.0215784  
C83      C      0.429990000000     0.911590000000     0.875620000000    -0.0558482  
C84      C      0.474310000000     0.891040000000     0.875510000000     0.0121471  
C85      C      0.514040000000     0.916900000000     0.869200000000    -0.0714265  
C86      C      0.508460000000     0.963710000000     0.862820000000     0.011989   
C87      C      0.376840000000     0.980430000000     0.869580000000     0.0215768  
C88      C      0.371360000000     0.027080000000     0.876430000000    -0.0558481  
C89      C      0.327060000000     0.047640000000     0.877030000000     0.0121269  
C90      C      0.287000000000     0.021970000000     0.871040000000    -0.0715029  
C91      C      0.292220000000     0.975340000000     0.864260000000     0.0119889  
C92      C      0.336650000000     0.954870000000     0.863410000000    -0.0556304  
C93      C      0.871140000000     0.913180000000     0.869800000000    -0.0560821  
C94      C      0.876620000000     0.958980000000     0.877880000000     0.0216352  
C95      C      0.836530000000     0.983840000000     0.884820000000    -0.0559218  
C96      C      0.792080000000     0.963500000000     0.883500000000     0.012085   
C97      C      0.786800000000     0.917790000000     0.875350000000    -0.0723647  
C98      C      0.826840000000     0.892820000000     0.868620000000     0.0122652  
C99      C      0.923830000000     0.980970000000     0.878440000000     0.021574   
C100     C      0.963790000000     0.954970000000     0.884480000000    -0.0558591  
C101     C      0.008310000000     0.975310000000     0.884060000000     0.0120804  
C102     C      0.013800000000     0.022160000000     0.877730000000    -0.0722444  
C103     C      0.973870000000     0.048310000000     0.872010000000     0.0121784  
C104     C      0.929490000000     0.027960000000     0.872280000000    -0.0560138  
C105     C      0.119460000000     0.238300000000     0.221930000000    -0.0560938  
C106     C      0.084460000000     0.235810000000     0.238860000000     0.021537   
C107     C      0.039010000000     0.222620000000     0.232480000000    -0.0568709  
C108     C      0.028070000000     0.214360000000     0.209500000000     0.0126281  
C109     C      0.062280000000     0.219400000000     0.192300000000    -0.0728822  
C110     C      0.108410000000     0.230320000000     0.198770000000     0.012549   
C111     C      0.093550000000     0.251720000000     0.262660000000     0.0221366  
C112     C      0.131790000000     0.235040000000     0.275440000000    -0.0568474  
C113     C      0.140100000000     0.251740000000     0.297750000000     0.0133461  
C114     C      0.110870000000     0.286070000000     0.307270000000    -0.0736679  
C115     C      0.072610000000     0.302380000000     0.294450000000     0.0139231  
C116     C      0.063880000000     0.285180000000     0.272480000000    -0.0570934  
C117     C      0.651890000000     0.634140000000     0.258890000000    -0.0564211  
C118     C      0.669170000000     0.679260000000     0.255120000000     0.0218313  
C119     C      0.676240000000     0.708790000000     0.274120000000    -0.0563701  
C120     C      0.667470000000     0.692950000000     0.296490000000     0.0126217  
C121     C      0.652030000000     0.647140000000     0.300230000000    -0.0728704  
C122     C      0.643580000000     0.618240000000     0.281170000000     0.0129587  
C123     C      0.683370000000     0.693500000000     0.231590000000     0.0217521  
C124     C      0.727000000000     0.714790000000     0.227990000000    -0.0562341  
C125     C      0.743570000000     0.722320000000     0.205710000000     0.0128223  
C126     C      0.716770000000     0.708950000000     0.186540000000    -0.0730204  
C127     C      0.672130000000     0.689800000000     0.190090000000     0.0126857  
C128     C      0.655650000000     0.681990000000     0.212410000000    -0.0564184  
C129     C      0.418270000000     0.531110000000     0.353800000000    -0.0562903  
C130     C      0.410910000000     0.483750000000     0.358690000000     0.0215146  
C131     C      0.449710000000     0.455840000000     0.364400000000    -0.0560047  
C132     C      0.494650000000     0.474990000000     0.365490000000     0.0121848  
C133     C      0.501740000000     0.522510000000     0.361020000000    -0.0720872  
C134     C      0.463130000000     0.550280000000     0.355000000000     0.0120101  
C135     C      0.362850000000     0.463790000000     0.358450000000     0.0215167  
C136     C      0.324780000000     0.489310000000     0.367230000000    -0.0559613  
C137     C      0.280050000000     0.469670000000     0.368120000000     0.0122545  
C138     C      0.272440000000     0.423990000000     0.360370000000    -0.0722208  
C139     C      0.310170000000     0.398870000000     0.351070000000     0.0120933  
C140     C      0.354830000000     0.418570000000     0.350070000000    -0.0562602  
C141     C      0.859150000000     0.530690000000     0.384140000000    -0.0563398  
C142     C      0.866650000000     0.483170000000     0.379710000000     0.0217052  
C143     C      0.828100000000     0.455110000000     0.373790000000    -0.0560093  
C144     C      0.783220000000     0.474250000000     0.372090000000     0.0124532  
C145     C      0.775980000000     0.521890000000     0.376200000000    -0.0728125  
C146     C      0.814380000000     0.549820000000     0.382360000000     0.0124162  
C147     C      0.914630000000     0.463220000000     0.380770000000     0.021598   
C148     C      0.953120000000     0.488260000000     0.372120000000    -0.0559501  
C149     C      0.997950000000     0.468790000000     0.372260000000     0.0123948  
C150     C      0.005250000000     0.423770000000     0.380970000000    -0.072042   
C151     C      0.967010000000     0.399090000000     0.390060000000     0.0121472  
C152     C      0.922230000000     0.418610000000     0.389990000000    -0.0562023  
C153     C      0.247560000000     0.242100000000     0.514090000000    -0.0569534  
C154     C      0.200350000000     0.248920000000     0.508470000000     0.0214728  
C155     C      0.166210000000     0.244400000000     0.525720000000    -0.0562215  
C156     C      0.179520000000     0.235530000000     0.548530000000     0.0123064  
C157     C      0.227090000000     0.230580000000     0.554260000000    -0.0725592  
C158     C      0.260770000000     0.232820000000     0.536670000000     0.012447   
C159     C      0.187970000000     0.265030000000     0.485110000000     0.0219365  
C160     C      0.210620000000     0.304320000000     0.476090000000    -0.0571941  
C161     C      0.200340000000     0.320030000000     0.454030000000     0.0135643  
C162     C      0.167580000000     0.296470000000     0.440280000000    -0.0736834  
C163     C      0.144890000000     0.256940000000     0.449200000000     0.0132455  
C164     C      0.154680000000     0.241590000000     0.471600000000    -0.0568178  
C165     C      0.152400000000     0.189450000000     0.717740000000    -0.0561962  
C166     C      0.180460000000     0.200420000000     0.736900000000     0.0217154  
C167     C      0.224100000000     0.221650000000     0.733230000000    -0.0561473  
C168     C      0.240350000000     0.229610000000     0.710970000000     0.0127707  
C169     C      0.213330000000     0.216680000000     0.691810000000    -0.0725303  
C170     C      0.168630000000     0.197680000000     0.695380000000     0.0123821  
C171     C      0.166840000000     0.185790000000     0.760470000000     0.0218317  
C172     C      0.176170000000     0.214410000000     0.779580000000    -0.0563859  
C173     C      0.169480000000     0.197750000000     0.801960000000     0.012722   
C174     C      0.153490000000     0.152120000000     0.805640000000    -0.0730564  
C175     C      0.142110000000     0.124340000000     0.786530000000     0.0128198  
C176     C      0.148660000000     0.140990000000     0.764220000000    -0.0561864  
C177     C      0.619820000000     0.700140000000     0.521360000000    -0.0562998  
C178     C      0.584850000000     0.692060000000     0.504860000000     0.0214366  
C179     C      0.537710000000     0.695410000000     0.511290000000    -0.0570865  
C180     C      0.525530000000     0.705040000000     0.533980000000     0.0124969  
C181     C      0.560250000000     0.710950000000     0.550860000000    -0.0726152  
C182     C      0.607600000000     0.709250000000     0.544290000000     0.0123623  
C183     C      0.596640000000     0.675710000000     0.481490000000     0.0218488  
C184     C      0.624310000000     0.702460000000     0.466520000000    -0.0568296  
C185     C      0.632950000000     0.686910000000     0.444040000000     0.0129411  
C186     C      0.614830000000     0.644000000000     0.436520000000    -0.0731084  
C187     C      0.587860000000     0.617160000000     0.451760000000     0.0133328  
C188     C      0.578590000000     0.633010000000     0.473910000000    -0.0572441  
C189     C      0.643850000000     0.753790000000     0.713520000000    -0.0561204  
C190     C      0.617090000000     0.741640000000     0.732950000000     0.0216875  
C191     C      0.573850000000     0.719360000000     0.729690000000    -0.05611    
C192     C      0.556660000000     0.711520000000     0.707590000000     0.0128278  
C193     C      0.582320000000     0.725610000000     0.688190000000    -0.0725642  
C194     C      0.626690000000     0.745670000000     0.691310000000     0.0123191  
C195     C      0.631520000000     0.756040000000     0.756440000000     0.021848   
C196     C      0.623880000000     0.726720000000     0.775460000000    -0.0563471  
C197     C      0.631140000000     0.743000000000     0.797860000000     0.012658   
C198     C      0.646050000000     0.788960000000     0.801650000000    -0.0730063  
C199     C      0.655780000000     0.817510000000     0.782610000000     0.0127987  
C200     C      0.648640000000     0.801240000000     0.760260000000    -0.0562074  
C201     C      0.454040000000     0.501480000000     0.631150000000    -0.0561905  
C202     C      0.406880000000     0.494940000000     0.625030000000     0.0216311  
C203     C      0.380180000000     0.534060000000     0.618610000000    -0.0560289  
C204     C      0.400130000000     0.578510000000     0.618360000000     0.0123813  
C205     C      0.447350000000     0.584770000000     0.624260000000    -0.072429   
C206     C      0.474090000000     0.545810000000     0.630640000000     0.0124541  
C207     C      0.385670000000     0.447560000000     0.625330000000     0.0216591  
C208     C      0.411840000000     0.408320000000     0.618570000000    -0.0560561  
C209     C      0.391830000000     0.363890000000     0.618840000000     0.0124381  
C210     C      0.345080000000     0.357780000000     0.625600000000    -0.072493   
C211     C      0.318890000000     0.396850000000     0.632350000000     0.0124802  
C212     C      0.339010000000     0.441160000000     0.632340000000    -0.0561851  
C213     C      0.453090000000     0.941670000000     0.618470000000    -0.0561916  
C214     C      0.406680000000     0.947710000000     0.625930000000     0.0217879  
C215     C      0.380900000000     0.908280000000     0.632730000000    -0.0560164  
C216     C      0.400950000000     0.863890000000     0.631940000000     0.0125454  
C217     C      0.447310000000     0.858030000000     0.624480000000    -0.0726973  
C218     C      0.473200000000     0.897380000000     0.617830000000     0.0125457  
C219     C      0.385120000000     0.994860000000     0.626250000000     0.0217508  
C220     C      0.411390000000     0.034150000000     0.632810000000    -0.0560079  
C221     C      0.391310000000     0.078550000000     0.632580000000     0.0125243  
C222     C      0.344440000000     0.084560000000     0.625960000000    -0.0726332  
C223     C      0.318070000000     0.045340000000     0.619580000000     0.0125005  
C224     C      0.338210000000     0.001050000000     0.619650000000    -0.056121   
Cd1      Cd     0.512820000000     0.721300000000     0.621740000000     0.510343   
Cd2      Cd     0.279040000000     0.221400000000     0.624430000000     0.510325   
Cd3      Cd     0.638830000000     0.586360000000     0.368420000000     0.510113   
Cd4      Cd     0.139390000000     0.354450000000     0.372520000000     0.508802   
Cd5      Cd     0.650710000000     0.849460000000     0.870310000000     0.508341   
Cd6      Cd     0.150490000000     0.089530000000     0.873860000000     0.508402   
Cd7      Cd     0.015750000000     0.214720000000     0.121040000000     0.508693   
Cd8      Cd     0.779670000000     0.715090000000     0.118360000000     0.508253   
H1       H      0.978830000000     0.464720000000     0.111310000000     0.0496675  
H2       H      0.013780000000     0.387530000000     0.111900000000     0.0470615  
H3       H      0.879790000000     0.327520000000     0.129200000000     0.0469659  
H4       H      0.844980000000     0.405050000000     0.129640000000     0.0495469  
H5       H      0.821390000000     0.466540000000     0.105650000000     0.0496326  
H6       H      0.786180000000     0.543570000000     0.105520000000     0.0470492  
H7       H      0.913320000000     0.601850000000     0.133480000000     0.0469191  
H8       H      0.948130000000     0.524300000000     0.134610000000     0.0496521  
H9       H      0.820100000000     0.964620000000     0.125060000000     0.0499175  
H10      H      0.784990000000     0.887600000000     0.126050000000     0.0474844  
H11      H      0.914710000000     0.827240000000     0.102270000000     0.046909   
H12      H      0.949650000000     0.904810000000     0.100550000000     0.0497589  
H13      H      0.976670000000     0.964890000000     0.125580000000     0.0499321  
H14      H      0.011590000000     0.041970000000     0.126900000000     0.0475643  
H15      H      0.882540000000     0.102130000000     0.102130000000     0.0469207  
H16      H      0.847820000000     0.024500000000     0.100090000000     0.0497222  
H17      H      0.199270000000     0.149370000000     0.993350000000     0.0494225  
H18      H      0.209300000000     0.121970000000     0.954020000000     0.0451237  
H19      H      0.086010000000     0.197770000000     0.933270000000     0.0462224  
H20      H      0.073650000000     0.222580000000     0.972720000000     0.0498506  
H21      H      0.092430000000     0.265810000000     0.004470000000     0.0494937  
H22      H      0.063300000000     0.276610000000     0.043450000000     0.0446863  
H23      H      0.127110000000     0.147070000000     0.064040000000     0.0457447  
H24      H      0.153400000000     0.134090000000     0.024800000000     0.0497336  
H25      H      0.732500000000     0.715770000000     0.967890000000     0.049756   
H26      H      0.719450000000     0.741610000000     0.928640000000     0.0460154  
H27      H      0.591610000000     0.809340000000     0.949570000000     0.0450514  
H28      H      0.602480000000     0.780800000000     0.988650000000     0.0494475  
H29      H      0.647010000000     0.797550000000     0.020390000000     0.0497337  
H30      H      0.672040000000     0.783770000000     0.059740000000     0.0460094  
H31      H      0.743190000000     0.658610000000     0.038320000000     0.0450242  
H32      H      0.715470000000     0.670140000000     0.999130000000     0.0494398  
H33      H      0.400420000000     0.890850000000     0.881150000000     0.0497028  
H34      H      0.477460000000     0.854930000000     0.880660000000     0.0471181  
H35      H      0.538380000000     0.984450000000     0.857730000000     0.0470255  
H36      H      0.460880000000     0.020100000000     0.857250000000     0.0496996  
H37      H      0.401220000000     0.047660000000     0.881720000000     0.0497171  
H38      H      0.324190000000     0.083600000000     0.882460000000     0.0470657  
H39      H      0.262030000000     0.954760000000     0.859400000000     0.0470496  
H40      H      0.339460000000     0.919120000000     0.857680000000     0.0497002  
H41      H      0.839480000000     0.018960000000     0.891430000000     0.0497883  
H42      H      0.761920000000     0.983520000000     0.888940000000     0.0468325  
H43      H      0.823980000000     0.857540000000     0.862180000000     0.0474366  
H44      H      0.901000000000     0.893240000000     0.863930000000     0.049958   
H45      H      0.960700000000     0.918880000000     0.889650000000     0.0497711  
H46      H      0.038370000000     0.954340000000     0.888700000000     0.0469298  
H47      H      0.976890000000     0.084490000000     0.866970000000     0.0474293  
H48      H      0.899740000000     0.048880000000     0.867160000000     0.0499304  
H49      H      0.011510000000     0.220040000000     0.245260000000     0.0505849  
H50      H      0.992290000000     0.205560000000     0.205150000000     0.0473991  
H51      H      0.135540000000     0.234250000000     0.185910000000     0.0470381  
H52      H      0.154740000000     0.248670000000     0.226440000000     0.0509439  
H53      H      0.155100000000     0.209160000000     0.268200000000     0.0507893  
H54      H      0.170010000000     0.238840000000     0.307250000000     0.0456406  
H55      H      0.049460000000     0.328800000000     0.301340000000     0.0460765  
H56      H      0.034440000000     0.298980000000     0.262920000000     0.0510645  
H57      H      0.689250000000     0.743870000000     0.271690000000     0.0502285  
H58      H      0.674170000000     0.716020000000     0.310860000000     0.046641   
H59      H      0.631440000000     0.582810000000     0.283460000000     0.047143   
H60      H      0.646660000000     0.610330000000     0.244680000000     0.0504907  
H61      H      0.749380000000     0.723630000000     0.242380000000     0.050422   
H62      H      0.778030000000     0.737400000000     0.203540000000     0.0470501  
H63      H      0.650580000000     0.679370000000     0.175660000000     0.0470852  
H64      H      0.621650000000     0.665960000000     0.214680000000     0.0502215  
H65      H      0.445260000000     0.419370000000     0.368590000000     0.0498929  
H66      H      0.523680000000     0.452730000000     0.370250000000     0.047475   
H67      H      0.467490000000     0.586990000000     0.351310000000     0.0468816  
H68      H      0.389360000000     0.553460000000     0.348980000000     0.0497285  
H69      H      0.329750000000     0.524020000000     0.374090000000     0.0498084  
H70      H      0.251720000000     0.489820000000     0.375480000000     0.0475578  
H71      H      0.305390000000     0.363650000000     0.344830000000     0.0466243  
H72      H      0.383130000000     0.398250000000     0.342810000000     0.0497197  
H73      H      0.832710000000     0.418490000000     0.369970000000     0.0500019  
H74      H      0.754340000000     0.451870000000     0.367250000000     0.0472429  
H75      H      0.809930000000     0.586630000000     0.385780000000     0.0470042  
H76      H      0.887890000000     0.553150000000     0.389080000000     0.0498867  
H77      H      0.948460000000     0.522480000000     0.364640000000     0.0500483  
H78      H      0.026660000000     0.488580000000     0.365020000000     0.0477906  
H79      H      0.971520000000     0.364370000000     0.396980000000     0.0467685  
H80      H      0.893520000000     0.398690000000     0.397140000000     0.0498467  
H81      H      0.129570000000     0.249760000000     0.521750000000     0.051095   
H82      H      0.152800000000     0.233790000000     0.561710000000     0.0468656  
H83      H      0.297690000000     0.228860000000     0.540420000000     0.0476884  
H84      H      0.274460000000     0.245090000000     0.501030000000     0.0508788  
H85      H      0.236150000000     0.323190000000     0.486250000000     0.0511107  
H86      H      0.218410000000     0.350590000000     0.447670000000     0.0465773  
H87      H      0.119290000000     0.238310000000     0.439000000000     0.0459363  
H88      H      0.136890000000     0.211120000000     0.478240000000     0.0510266  
H89      H      0.246850000000     0.230030000000     0.747540000000     0.0503585  
H90      H      0.274870000000     0.244570000000     0.708800000000     0.0472817  
H91      H      0.146960000000     0.187530000000     0.680940000000     0.0467693  
H92      H      0.118380000000     0.173490000000     0.720040000000     0.0500469  
H93      H      0.189720000000     0.249300000000     0.777240000000     0.0500902  
H94      H      0.178240000000     0.220090000000     0.816340000000     0.0470948  
H95      H      0.129480000000     0.089070000000     0.788780000000     0.0471665  
H96      H      0.141630000000     0.117850000000     0.749920000000     0.0503205  
H97      H      0.510200000000     0.689460000000     0.498800000000     0.0511391  
H98      H      0.488720000000     0.706330000000     0.538390000000     0.0476678  
H99      H      0.635080000000     0.713850000000     0.556920000000     0.0467861  
H100     H      0.656450000000     0.697430000000     0.516720000000     0.0512534  
H101     H      0.638430000000     0.735600000000     0.472070000000     0.0512329  
H102     H      0.654060000000     0.708130000000     0.432660000000     0.0459624  
H103     H      0.573370000000     0.583980000000     0.446480000000     0.0467426  
H104     H      0.557320000000     0.611750000000     0.485220000000     0.0513488  
H105     H      0.552080000000     0.710030000000     0.744230000000     0.0503436  
H106     H      0.522430000000     0.695720000000     0.705760000000     0.0472437  
H107     H      0.647290000000     0.756750000000     0.676670000000     0.0467051  
H108     H      0.677550000000     0.770600000000     0.715500000000     0.0500156  
H109     H      0.611190000000     0.691520000000     0.773050000000     0.0500655  
H110     H      0.623680000000     0.720070000000     0.812180000000     0.0471558  
H111     H      0.667540000000     0.853050000000     0.784950000000     0.0471696  
H112     H      0.654360000000     0.824910000000     0.746040000000     0.0503418  
H113     H      0.343980000000     0.530340000000     0.613430000000     0.0497264  
H114     H      0.378730000000     0.607850000000     0.613230000000     0.0470923  
H115     H      0.510540000000     0.549580000000     0.635430000000     0.0467611  
H116     H      0.475480000000     0.472410000000     0.636590000000     0.049762   
H117     H      0.447620000000     0.411930000000     0.612710000000     0.0497015  
H118     H      0.412790000000     0.334450000000     0.613410000000     0.047034   
H119     H      0.282830000000     0.393200000000     0.637810000000     0.0467842  
H120     H      0.318020000000     0.470320000000     0.638080000000     0.0497896  
H121     H      0.345300000000     0.911700000000     0.638890000000     0.0499301  
H122     H      0.380220000000     0.834240000000     0.637300000000     0.0472859  
H123     H      0.508980000000     0.893990000000     0.611900000000     0.0470498  
H124     H      0.473740000000     0.971070000000     0.612740000000     0.0500114  
H125     H      0.447410000000     0.030600000000     0.638320000000     0.0499312  
H126     H      0.412430000000     0.108090000000     0.637710000000     0.047263   
H127     H      0.281900000000     0.048850000000     0.614280000000     0.0470894  
H128     H      0.317140000000     0.971770000000     0.614130000000     0.0499885  
O1       O      0.444850000000     0.668320000000     0.621460000000    -0.229716   
O2       O      0.583220000000     0.729850000000     0.646680000000    -0.231494   
O3       O      0.445570000000     0.774410000000     0.627170000000    -0.231225   
O4       O      0.503330000000     0.719410000000     0.580520000000    -0.241107   
O5       O      0.575120000000     0.716250000000     0.591730000000    -0.23136    
O6       O      0.511910000000     0.806130000000     0.619210000000    -0.240123   
O7       O      0.512930000000     0.636580000000     0.624800000000    -0.238747   
O8       O      0.517400000000     0.714390000000     0.663090000000    -0.240185   
O9       O      0.347150000000     0.274190000000     0.622970000000    -0.230037   
O10      O      0.210110000000     0.213090000000     0.650320000000    -0.231615   
O11      O      0.346490000000     0.168160000000     0.628820000000    -0.231033   
O12      O      0.285730000000     0.221590000000     0.583070000000    -0.241029   
O13      O      0.214880000000     0.227290000000     0.595400000000    -0.231266   
O14      O      0.279580000000     0.136590000000     0.621920000000    -0.239965   
O15      O      0.279450000000     0.306150000000     0.627340000000    -0.238982   
O16      O      0.276960000000     0.227740000000     0.665890000000    -0.240213   
O17      O      0.692840000000     0.518780000000     0.369430000000    -0.231666   
O18      O      0.636760000000     0.651910000000     0.396590000000    -0.230759   
O19      O      0.585100000000     0.519180000000     0.366960000000    -0.229015   
O20      O      0.642900000000     0.584740000000     0.326870000000    -0.240566   
O21      O      0.647380000000     0.653450000000     0.341590000000    -0.231442   
O22      O      0.554660000000     0.587110000000     0.361700000000    -0.238836   
O23      O      0.722990000000     0.586310000000     0.375530000000    -0.240811   
O24      O      0.618470000000     0.583350000000     0.408680000000    -0.240837   
O25      O      0.190890000000     0.423470000000     0.370720000000    -0.229805   
O26      O      0.145160000000     0.287420000000     0.345230000000    -0.230981   
O27      O      0.087210000000     0.422810000000     0.371510000000    -0.22948    
O28      O      0.168260000000     0.355590000000     0.411600000000    -0.241541   
O29      O      0.137220000000     0.290360000000     0.401620000000    -0.231887   
O30      O      0.057640000000     0.359130000000     0.384650000000    -0.238362   
O31      O      0.220670000000     0.358480000000     0.359460000000    -0.238568   
O32      O      0.105850000000     0.347590000000     0.334510000000    -0.240938   
O33      O      0.598370000000     0.918110000000     0.867400000000    -0.230218   
O34      O      0.670240000000     0.782780000000     0.895610000000    -0.232228   
O35      O      0.702410000000     0.917760000000     0.877630000000    -0.231952   
O36      O      0.657490000000     0.850890000000     0.828530000000    -0.240125   
O37      O      0.641290000000     0.783810000000     0.842960000000    -0.232634   
O38      O      0.735830000000     0.853330000000     0.868420000000    -0.238709   
O39      O      0.565340000000     0.851190000000     0.871630000000    -0.236927   
O40      O      0.631400000000     0.838960000000     0.910950000000    -0.238247   
O41      O      0.202620000000     0.020890000000     0.870180000000    -0.230252   
O42      O      0.133370000000     0.155510000000     0.900000000000    -0.232004   
O43      O      0.098200000000     0.021140000000     0.879680000000    -0.231637   
O44      O      0.142200000000     0.089610000000     0.832170000000    -0.240287   
O45      O      0.159780000000     0.156050000000     0.846940000000    -0.232379   
O46      O      0.065250000000     0.086990000000     0.872760000000    -0.238826   
O47      O      0.235910000000     0.087680000000     0.874380000000    -0.237338   
O48      O      0.169250000000     0.096750000000     0.914750000000    -0.238474   
O49      O      0.947050000000     0.267440000000     0.121030000000    -0.229596   
O50      O      0.085710000000     0.197360000000     0.097200000000    -0.231716   
O51      O      0.948190000000     0.162270000000     0.112920000000    -0.231308   
O52      O      0.006230000000     0.208980000000     0.162330000000    -0.241201   
O53      O      0.076930000000     0.222350000000     0.151400000000    -0.232003   
O54      O      0.013680000000     0.129950000000     0.121770000000    -0.238909   
O55      O      0.015220000000     0.299680000000     0.120550000000    -0.236908   
O56      O      0.029190000000     0.234200000000     0.080780000000    -0.238548   
O57      O      0.848460000000     0.662690000000     0.122060000000    -0.230266   
O58      O      0.713070000000     0.734080000000     0.092730000000    -0.231875   
O59      O      0.848310000000     0.767250000000     0.112150000000    -0.231714   
O60      O      0.779380000000     0.722610000000     0.160130000000    -0.24002    
O61      O      0.713160000000     0.703630000000     0.145210000000    -0.232628   
O62      O      0.782480000000     0.799800000000     0.120100000000    -0.238593   
O63      O      0.781520000000     0.630290000000     0.116080000000    -0.236949   
O64      O      0.771160000000     0.697730000000     0.077430000000    -0.238134   


