data_structure

_audit_creation_method RASPA-1.0
_audit_creation_date 2023-5-22
_audit_author_name 'Poobodin Mano'

_cell_length_a    35.1693
_cell_length_b    35.2179
_cell_length_c    37.2105
_cell_angle_alpha 90.0021
_cell_angle_beta  90.002
_cell_angle_gamma 120
_cell_volume      39913.8

_symmetry_cell_setting          triclinic
_symmetry_space_group_name_Hall 'P 1'
_symmetry_space_group_name_H-M  'P 1'
_symmetry_Int_Tables_number     1

_symmetry_equiv_pos_as_xyz 'x,y,z'

loop_
_atom_site_label
_atom_site_type_symbol
_atom_site_fract_x
_atom_site_fract_y
_atom_site_fract_z
_atom_site_charge
C1       C      0.746270000000     0.473510000000     0.198510000000     0.288054   
C2       C      0.690450000000     0.473550000000     0.319400000000     0.287706   
C3       C      0.831460000000     0.570680000000     0.287440000000     0.289729   
C4       C      0.702540000000     0.570680000000     0.230460000000     0.289578   
C5       C      0.454110000000     0.710470000000     0.031780000000     0.287956   
C6       C      0.454150000000     0.766230000000     0.152800000000     0.287652   
C7       C      0.551140000000     0.722350000000     0.120820000000     0.28961    
C8       C      0.551140000000     0.851230000000     0.063760000000     0.289752   
C9       C      0.746150000000     0.294920000000     0.986210000000     0.287725   
C10      C      0.690340000000     0.239130000000     0.865260000000     0.287694   
C11      C      0.831340000000     0.283060000000     0.897190000000     0.289587   
C12      C      0.702470000000     0.154130000000     0.954210000000     0.289732   
C13      C      0.275560000000     0.531940000000     0.819390000000     0.287789   
C14      C      0.219730000000     0.531970000000     0.698510000000     0.287966   
C15      C      0.263470000000     0.434810000000     0.730460000000     0.289734   
C16      C      0.134550000000     0.434800000000     0.787430000000     0.289667   
C17      C      0.511920000000     0.295040000000     0.531770000000     0.287814   
C18      C      0.511890000000     0.239280000000     0.652790000000     0.287716   
C19      C      0.414890000000     0.283160000000     0.620810000000     0.289555   
C20      C      0.414900000000     0.154280000000     0.563750000000     0.289661   
C21      C      0.219890000000     0.710570000000     0.486210000000     0.287843   
C22      C      0.275690000000     0.766360000000     0.365260000000     0.287667   
C23      C      0.134700000000     0.722420000000     0.397190000000     0.289768   
C24      C      0.263570000000     0.851350000000     0.454210000000     0.289768   
C25      C      0.388700000000     0.040470000000     0.535430000000    -0.0565079  
C26      C      0.348460000000     0.024940000000     0.517390000000     0.0218012  
C27      C      0.329790000000     0.052090000000     0.515390000000    -0.0563339  
C28      C      0.351110000000     0.093960000000     0.530740000000     0.0129538  
C29      C      0.391570000000     0.109570000000     0.548370000000    -0.0734797  
C30      C      0.410030000000     0.082310000000     0.550680000000     0.0127865  
C31      C      0.326370000000     0.980710000000     0.500540000000     0.0217888  
C32      C      0.351100000000     0.965320000000     0.482400000000    -0.0564447  
C33      C      0.330630000000     0.923480000000     0.467150000000     0.0127818  
C34      C      0.284910000000     0.896070000000     0.469570000000    -0.0734967  
C35      C      0.260020000000     0.911540000000     0.487300000000     0.0129665  
C36      C      0.280540000000     0.953410000000     0.502650000000    -0.056334   
C37      C      0.280500000000     0.349810000000     0.681900000000    -0.0563112  
C38      C      0.326320000000     0.368230000000     0.684090000000     0.0217776  
C39      C      0.351030000000     0.408260000000     0.702330000000    -0.0564836  
C40      C      0.330540000000     0.429630000000     0.717590000000     0.012801   
C41      C      0.284830000000     0.411420000000     0.715090000000    -0.0734645  
C42      C      0.259970000000     0.371170000000     0.697250000000     0.0129794  
C43      C      0.348430000000     0.346100000000     0.667220000000     0.0218102  
C44      C      0.329720000000     0.300300000000     0.669120000000    -0.0563343  
C45      C      0.351050000000     0.279740000000     0.653740000000     0.0129775  
C46      C      0.391560000000     0.304560000000     0.636200000000    -0.0734851  
C47      C      0.410060000000     0.350260000000     0.634000000000     0.0127905  
C48      C      0.388720000000     0.370780000000     0.649280000000    -0.0564809  
C49      C      0.203710000000     0.664180000000     0.580440000000    -0.0562315  
C50      C      0.217670000000     0.633300000000     0.576690000000     0.0216347  
C51      C      0.232030000000     0.627860000000     0.542820000000    -0.0561356  
C52      C      0.232600000000     0.652830000000     0.513430000000     0.0125108  
C53      C      0.218800000000     0.683800000000     0.517250000000    -0.0725064  
C54      C      0.204250000000     0.689150000000     0.551030000000     0.0122316  
C55      C      0.217640000000     0.607130000000     0.608050000000     0.0216607  
C56      C      0.231580000000     0.626780000000     0.642010000000    -0.0561806  
C57      C      0.232100000000     0.602340000000     0.671400000000     0.0125589  
C58      C      0.218660000000     0.557690000000     0.667490000000    -0.0725454  
C59      C      0.204510000000     0.537930000000     0.633610000000     0.012257   
C60      C      0.204020000000     0.562390000000     0.604210000000    -0.0562596  
C61      C      0.032410000000     0.349730000000     0.835940000000    -0.0563115  
C62      C      0.005070000000     0.368200000000     0.833850000000     0.0217865  
C63      C      0.020460000000     0.408270000000     0.815690000000    -0.0563556  
C64      C      0.062340000000     0.429660000000     0.800420000000     0.0127457  
C65      C      0.089790000000     0.411410000000     0.802820000000    -0.0734525  
C66      C      0.074320000000     0.371100000000     0.820570000000     0.0129546  
C67      C      0.960800000000     0.346050000000     0.850730000000     0.0217683  
C68      C      0.933610000000     0.300250000000     0.848750000000    -0.056336   
C69      C      0.891710000000     0.279680000000     0.864140000000     0.013001   
C70      C      0.876090000000     0.304470000000     0.881780000000    -0.0735163  
C71      C      0.903390000000     0.350160000000     0.884070000000     0.012846   
C72      C      0.945260000000     0.370700000000     0.868780000000    -0.0564997  
C73      C      0.644230000000     0.223350000000     0.770940000000    -0.0562397  
C74      C      0.613050000000     0.236960000000     0.774730000000     0.0216521  
C75      C      0.607290000000     0.250910000000     0.808670000000    -0.0562276  
C76      C      0.632260000000     0.251440000000     0.838080000000     0.0125951  
C77      C      0.663540000000     0.238020000000     0.834220000000    -0.0725584  
C78      C      0.669190000000     0.223860000000     0.800360000000     0.0122722  
C79      C      0.586920000000     0.237000000000     0.743350000000     0.0216767  
C80      C      0.606780000000     0.251350000000     0.709490000000    -0.0562384  
C81      C      0.582370000000     0.251940000000     0.680080000000     0.0125878  
C82      C      0.537560000000     0.238160000000     0.683850000000    -0.0725354  
C83      C      0.517610000000     0.223610000000     0.717620000000     0.0122791  
C84      C      0.542030000000     0.223050000000     0.747050000000    -0.0562973  
C85      C      0.358750000000     0.754580000000     0.308670000000    -0.056262   
C86      C      0.352980000000     0.768540000000     0.274730000000     0.0216942  
C87      C      0.321800000000     0.782140000000     0.270940000000    -0.0563092  
C88      C      0.296840000000     0.781630000000     0.300370000000     0.0122824  
C89      C      0.302490000000     0.767460000000     0.334220000000    -0.0725334  
C90      C      0.333770000000     0.754040000000     0.338080000000     0.0125851  
C91      C      0.379120000000     0.768500000000     0.243350000000     0.0216565  
C92      C      0.424010000000     0.782450000000     0.247050000000    -0.0562564  
C93      C      0.448430000000     0.781900000000     0.217630000000     0.0122648  
C94      C      0.428480000000     0.767350000000     0.183850000000    -0.0725428  
C95      C      0.383670000000     0.753580000000     0.180080000000     0.0125922  
C96      C      0.359260000000     0.754160000000     0.209490000000    -0.0562374  
C97      C      0.636250000000     0.953410000000     0.015400000000    -0.0563481  
C98      C      0.617580000000     0.980560000000     0.017390000000     0.0217916  
C99      C      0.577350000000     0.965030000000     0.035430000000    -0.056437   
C100     C      0.556020000000     0.923200000000     0.050690000000     0.0127892  
C101     C      0.574470000000     0.895940000000     0.048380000000    -0.0735207  
C102     C      0.614930000000     0.911550000000     0.030760000000     0.0130005  
C103     C      0.639680000000     0.024780000000     0.000540000000     0.0217671  
C104     C      0.685510000000     0.052090000000     0.002650000000    -0.056311   
C105     C      0.706020000000     0.093950000000     0.987300000000     0.0129767  
C106     C      0.681130000000     0.109420000000     0.969570000000    -0.0735259  
C107     C      0.635410000000     0.082010000000     0.967150000000     0.0127937  
C108     C      0.614940000000     0.040170000000     0.982390000000    -0.0564441  
C109     C      0.359160000000     0.627840000000     0.975100000000    -0.056255   
C110     C      0.379020000000     0.633210000000     0.941260000000     0.0216902  
C111     C      0.423940000000     0.664010000000     0.937560000000    -0.056307   
C112     C      0.448380000000     0.688970000000     0.966980000000     0.0123131  
C113     C      0.428420000000     0.683700000000     0.000740000000    -0.0726409  
C114     C      0.383580000000     0.652810000000     0.004500000000     0.0126434  
C115     C      0.352880000000     0.607050000000     0.909890000000     0.0216397  
C116     C      0.321610000000     0.562340000000     0.913730000000    -0.05623    
C117     C      0.296640000000     0.537890000000     0.884320000000     0.0122196  
C118     C      0.302370000000     0.557640000000     0.850430000000    -0.0724702  
C119     C      0.333730000000     0.602260000000     0.846520000000     0.0125599  
C120     C      0.358710000000     0.626690000000     0.875920000000    -0.0561846  
C121     C      0.644410000000     0.443160000000     0.413730000000    -0.0562645  
C122     C      0.613140000000     0.398450000000     0.409890000000     0.0216484  
C123     C      0.607310000000     0.378800000000     0.375910000000    -0.0562054  
C124     C      0.632280000000     0.403230000000     0.346510000000     0.0125388  
C125     C      0.663650000000     0.447860000000     0.350430000000    -0.0725274  
C126     C      0.669380000000     0.467600000000     0.384320000000     0.0122804  
C127     C      0.587000000000     0.372290000000     0.441260000000     0.0216696  
C128     C      0.606870000000     0.377670000000     0.475100000000    -0.0562272  
C129     C      0.582450000000     0.352700000000     0.504500000000     0.0125923  
C130     C      0.537610000000     0.321810000000     0.500730000000    -0.0725923  
C131     C      0.517650000000     0.316540000000     0.466980000000     0.0123115  
C132     C      0.542080000000     0.341500000000     0.437560000000    -0.0562763  
C133     C      0.945560000000     0.597200000000     0.315700000000    -0.0564626  
C134     C      0.960950000000     0.637280000000     0.333850000000     0.021729   
C135     C      0.933610000000     0.655740000000     0.335950000000    -0.0562485  
C136     C      0.891700000000     0.634380000000     0.320580000000     0.0129162  
C137     C      0.876230000000     0.594070000000     0.302830000000    -0.0734366  
C138     C      0.903680000000     0.575820000000     0.300420000000     0.0127545  
C139     C      0.005230000000     0.659430000000     0.350730000000     0.0218488  
C140     C      0.020770000000     0.634780000000     0.368780000000    -0.0565016  
C141     C      0.062650000000     0.655320000000     0.384070000000     0.0128324  
C142     C      0.089940000000     0.701000000000     0.381780000000    -0.0735147  
C143     C      0.074320000000     0.725800000000     0.364140000000     0.0129911  
C144     C      0.032410000000     0.705230000000     0.348760000000    -0.056342   
C145     C      0.636310000000     0.705200000000     0.169140000000    -0.0563616  
C146     C      0.617600000000     0.659400000000     0.167230000000     0.0218099  
C147     C      0.577310000000     0.634730000000     0.149270000000    -0.0565033  
C148     C      0.555980000000     0.655250000000     0.134000000000     0.0128459  
C149     C      0.574470000000     0.700950000000     0.136210000000    -0.0735289  
C150     C      0.614980000000     0.725760000000     0.153760000000     0.0130043  
C151     C      0.639710000000     0.637260000000     0.184100000000     0.0218025  
C152     C      0.685530000000     0.655690000000     0.181910000000    -0.0563536  
C153     C      0.706050000000     0.634320000000     0.197270000000     0.0130083  
C154     C      0.681190000000     0.594070000000     0.215090000000    -0.0734881  
C155     C      0.635480000000     0.575860000000     0.217590000000     0.0127957  
C156     C      0.615000000000     0.597240000000     0.202330000000    -0.0564687  
C157     C      0.734000000000     0.377630000000     0.042820000000    -0.0561898  
C158     C      0.748350000000     0.372190000000     0.076700000000     0.0216273  
C159     C      0.762320000000     0.341310000000     0.080440000000    -0.05624    
C160     C      0.761780000000     0.316340000000     0.051040000000     0.012257   
C161     C      0.747240000000     0.321690000000     0.017240000000    -0.072546   
C162     C      0.733440000000     0.352650000000     0.013430000000     0.0125878  
C163     C      0.748380000000     0.398360000000     0.108050000000     0.0216933  
C164     C      0.762000000000     0.443100000000     0.104220000000    -0.0563184  
C165     C      0.761500000000     0.467550000000     0.133620000000     0.0123753  
C166     C      0.747350000000     0.447800000000     0.167490000000    -0.0726591  
C167     C      0.733910000000     0.403150000000     0.171400000000     0.0126347  
C168     C      0.734430000000     0.378700000000     0.142010000000    -0.0562495  
Cd1      Cd     0.743290000000     0.523300000000     0.258950000000     0.506736   
Cd2      Cd     0.503860000000     0.763180000000     0.092280000000     0.506756   
Cd3      Cd     0.743180000000     0.242200000000     0.925740000000     0.506709   
Cd4      Cd     0.222730000000     0.482180000000     0.758940000000     0.506712   
Cd5      Cd     0.462180000000     0.242330000000     0.592270000000     0.506757   
Cd6      Cd     0.222860000000     0.763290000000     0.425740000000     0.506765   
H1       H      0.299090000000     0.041340000000     0.501370000000     0.0500816  
H2       H      0.336120000000     0.114250000000     0.528440000000     0.0471725  
H3       H      0.441060000000     0.093290000000     0.564240000000     0.0465457  
H4       H      0.403630000000     0.020160000000     0.538010000000     0.0499308  
H5       H      0.386360000000     0.985760000000     0.479720000000     0.04989    
H6       H      0.350710000000     0.912610000000     0.453510000000     0.0465502  
H7       H      0.224730000000     0.891130000000     0.489690000000     0.0471684  
H8       H      0.260560000000     0.964050000000     0.516740000000     0.0500842  
H9       H      0.386270000000     0.423000000000     0.705070000000     0.0499139  
H10      H      0.350600000000     0.460500000000     0.731320000000     0.0465434  
H11      H      0.224680000000     0.356370000000     0.694790000000     0.0471661  
H12      H      0.260540000000     0.319270000000     0.667720000000     0.0500648  
H13      H      0.298970000000     0.280360000000     0.683070000000     0.0500738  
H14      H      0.336010000000     0.244460000000     0.655970000000     0.0471603  
H15      H      0.441140000000     0.370290000000     0.620510000000     0.0465526  
H16      H      0.403690000000     0.406020000000     0.646770000000     0.049911   
H17      H      0.243540000000     0.604760000000     0.539130000000     0.049961   
H18      H      0.244100000000     0.648020000000     0.487760000000     0.0475568  
H19      H      0.193290000000     0.712650000000     0.554810000000     0.0467076  
H20      H      0.191930000000     0.668780000000     0.606050000000     0.0498994  
H21      H      0.242810000000     0.661300000000     0.645780000000     0.0499784  
H22      H      0.243290000000     0.618540000000     0.697140000000     0.0475428  
H23      H      0.193830000000     0.503550000000     0.629760000000     0.046705   
H24      H      0.192550000000     0.546120000000     0.578530000000     0.0499125  
H25      H      0.999990000000     0.423050000000     0.813030000000     0.049837   
H26      H      0.073210000000     0.460570000000     0.786760000000     0.0465646  
H27      H      0.094750000000     0.356260000000     0.822950000000     0.0471734  
H28      H      0.021770000000     0.319150000000     0.850050000000     0.0500816  
H29      H      0.944370000000     0.280340000000     0.834720000000     0.0500619  
H30      H      0.871390000000     0.244410000000     0.861850000000     0.0471572  
H31      H      0.892400000000     0.370180000000     0.897650000000     0.0465245  
H32      H      0.965610000000     0.405930000000     0.871360000000     0.0499049  
H33      H      0.583960000000     0.262130000000     0.812410000000     0.0500013  
H34      H      0.627210000000     0.262640000000     0.863810000000     0.0475356  
H35      H      0.692940000000     0.213190000000     0.796540000000     0.0466916  
H36      H      0.649080000000     0.211880000000     0.745270000000     0.0498914  
H37      H      0.641410000000     0.262840000000     0.705830000000     0.050009   
H38      H      0.598730000000     0.263440000000     0.654420000000     0.0475434  
H39      H      0.483100000000     0.212660000000     0.721360000000     0.0466856  
H40      H      0.525610000000     0.211280000000     0.772640000000     0.0499229  
H41      H      0.316960000000     0.793610000000     0.245280000000     0.0499308  
H42      H      0.273090000000     0.792300000000     0.296550000000     0.0466938  
H43      H      0.338820000000     0.742850000000     0.363810000000     0.0475416  
H44      H      0.382080000000     0.743370000000     0.312410000000     0.0500229  
H45      H      0.440430000000     0.794220000000     0.272650000000     0.049899   
H46      H      0.482940000000     0.792850000000     0.221370000000     0.0466885  
H47      H      0.367310000000     0.742080000000     0.154420000000     0.0475461  
H48      H      0.324630000000     0.742670000000     0.205830000000     0.0500119  
H49      H      0.562410000000     0.985350000000     0.038010000000     0.0498877  
H50      H      0.524990000000     0.912220000000     0.064250000000     0.0465502  
H51      H      0.629920000000     0.891250000000     0.028460000000     0.0471595  
H52      H      0.666950000000     0.964160000000     0.001380000000     0.0500818  
H53      H      0.705490000000     0.041450000000     0.016750000000     0.0500678  
H54      H      0.741310000000     0.114360000000     0.989700000000     0.0471618  
H55      H      0.615330000000     0.092870000000     0.953500000000     0.0465468  
H56      H      0.579680000000     0.019730000000     0.979720000000     0.0498903  
H57      H      0.440360000000     0.668550000000     0.911980000000     0.0499217  
H58      H      0.482910000000     0.712410000000     0.963240000000     0.0466782  
H59      H      0.367220000000     0.648060000000     0.030150000000     0.0475407  
H60      H      0.324510000000     0.604810000000     0.978760000000     0.0500099  
H61      H      0.316710000000     0.546070000000     0.939420000000     0.0498996  
H62      H      0.272830000000     0.503530000000     0.888170000000     0.0467133  
H63      H      0.338840000000     0.618460000000     0.820760000000     0.0475344  
H64      H      0.382110000000     0.661190000000     0.872140000000     0.0499781  
H65      H      0.583910000000     0.344310000000     0.372140000000     0.0499975  
H66      H      0.627170000000     0.387040000000     0.320760000000     0.0475435  
H67      H      0.693190000000     0.501970000000     0.388170000000     0.0466911  
H68      H      0.649310000000     0.459430000000     0.439420000000     0.0499091  
H69      H      0.641520000000     0.400700000000     0.478760000000     0.0500024  
H70      H      0.598810000000     0.357450000000     0.530150000000     0.0475472  
H71      H      0.483120000000     0.293090000000     0.463230000000     0.0466791  
H72      H      0.525660000000     0.336950000000     0.411970000000     0.0499034  
H73      H      0.944250000000     0.686330000000     0.350070000000     0.0500243  
H74      H      0.871270000000     0.649220000000     0.322960000000     0.0471799  
H75      H      0.892800000000     0.544910000000     0.286760000000     0.0465523  
H76      H      0.966020000000     0.582430000000     0.313030000000     0.0498985  
H77      H      0.000420000000     0.599550000000     0.371350000000     0.0499306  
H78      H      0.073630000000     0.635300000000     0.397630000000     0.0465366  
H79      H      0.094640000000     0.761070000000     0.361860000000     0.0471691  
H80      H      0.021650000000     0.725140000000     0.334730000000     0.0500879  
H81      H      0.562340000000     0.599490000000     0.146750000000     0.0499146  
H82      H      0.524900000000     0.635220000000     0.120490000000     0.0465321  
H83      H      0.630010000000     0.761040000000     0.156000000000     0.047157   
H84      H      0.667050000000     0.725140000000     0.183100000000     0.0500838  
H85      H      0.705490000000     0.686230000000     0.167740000000     0.050079   
H86      H      0.741340000000     0.649130000000     0.194820000000     0.0471496  
H87      H      0.615410000000     0.544980000000     0.231300000000     0.0465358  
H88      H      0.579750000000     0.582490000000     0.205060000000     0.0498984  
H89      H      0.774100000000     0.336710000000     0.106050000000     0.0498973  
H90      H      0.772750000000     0.292840000000     0.054820000000     0.0466949  
H91      H      0.721940000000     0.357460000000     0.987750000000     0.047541   
H92      H      0.722490000000     0.400720000000     0.039120000000     0.0499865  
H93      H      0.773470000000     0.459370000000     0.078540000000     0.0499201  
H94      H      0.772190000000     0.501940000000     0.129760000000     0.0466639  
H95      H      0.722720000000     0.386940000000     0.197140000000     0.0475207  
H96      H      0.723210000000     0.344190000000     0.145780000000     0.0500053  
O1       O      0.686090000000     0.456530000000     0.288630000000    -0.230552   
O2       O      0.743740000000     0.586660000000     0.229770000000    -0.233167   
O3       O      0.733540000000     0.456490000000     0.229260000000    -0.230736   
O4       O      0.815940000000     0.533120000000     0.273400000000    -0.240017   
O5       O      0.806300000000     0.586690000000     0.288080000000    -0.233308   
O6       O      0.757780000000     0.513650000000     0.195740000000    -0.237677   
O7       O      0.719210000000     0.513680000000     0.322170000000    -0.237527   
O8       O      0.680470000000     0.533150000000     0.244550000000    -0.239958   
O9       O      0.436950000000     0.753120000000     0.122140000000    -0.230506   
O10      O      0.567320000000     0.826230000000     0.063240000000    -0.2333     
O11      O      0.436910000000     0.706460000000     0.062420000000    -0.23067    
O12      O      0.513420000000     0.700340000000     0.106940000000    -0.239986   
O13      O      0.567360000000     0.763520000000     0.121270000000    -0.233223   
O14      O      0.494430000000     0.738810000000     0.029140000000    -0.237618   
O15      O      0.494460000000     0.778070000000     0.155440000000    -0.237479   
O16      O      0.513460000000     0.835600000000     0.077690000000    -0.240079   
O17      O      0.686060000000     0.251930000000     0.895990000000    -0.230531   
O18      O      0.743670000000     0.179260000000     0.954840000000    -0.233259   
O19      O      0.757980000000     0.266490000000     0.988900000000    -0.237501   
O20      O      0.806300000000     0.241900000000     0.896660000000    -0.233244   
O21      O      0.815690000000     0.305060000000     0.911150000000    -0.239923   
O22      O      0.733090000000     0.299000000000     0.955530000000    -0.230624   
O23      O      0.719020000000     0.227600000000     0.862530000000    -0.237472   
O24      O      0.680380000000     0.169640000000     0.940200000000    -0.240074   
O25      O      0.208230000000     0.491830000000     0.695730000000    -0.237634   
O26      O      0.159720000000     0.418790000000     0.788060000000    -0.233227   
O27      O      0.279920000000     0.548960000000     0.788630000000    -0.230629   
O28      O      0.222280000000     0.418830000000     0.729750000000    -0.233287   
O29      O      0.285550000000     0.472330000000     0.744560000000    -0.240049   
O30      O      0.246810000000     0.491810000000     0.822170000000    -0.237552   
O31      O      0.232470000000     0.548990000000     0.729260000000    -0.230711   
O32      O      0.150070000000     0.472360000000     0.773400000000    -0.23999    
O33      O      0.529090000000     0.252400000000     0.622140000000    -0.230572   
O34      O      0.398720000000     0.179280000000     0.563230000000    -0.233277   
O35      O      0.529120000000     0.299050000000     0.562420000000    -0.23059    
O36      O      0.452620000000     0.305180000000     0.606950000000    -0.239938   
O37      O      0.398680000000     0.241990000000     0.621250000000    -0.233199   
O38      O      0.471600000000     0.266700000000     0.529130000000    -0.237584   
O39      O      0.471580000000     0.227440000000     0.655430000000    -0.23749    
O40      O      0.452590000000     0.169920000000     0.577680000000    -0.240031   
O41      O      0.279970000000     0.753560000000     0.395990000000    -0.230527   
O42      O      0.222370000000     0.826220000000     0.454830000000    -0.23328    
O43      O      0.232940000000     0.706490000000     0.455530000000    -0.230669   
O44      O      0.159730000000     0.763580000000     0.396670000000    -0.233295   
O45      O      0.150350000000     0.700430000000     0.411140000000    -0.240036   
O46      O      0.208070000000     0.739000000000     0.488900000000    -0.237563   
O47      O      0.247010000000     0.777890000000     0.362530000000    -0.237467   
O48      O      0.285660000000     0.835840000000     0.440210000000    -0.240116   


