data_structure

_audit_creation_method RASPA-1.0
_audit_creation_date 2023-6-5
_audit_author_name 'Poobodin Mano'

_cell_length_a    45.5158
_cell_length_b    45.5106
_cell_length_c    24.9316
_cell_angle_alpha 90.043
_cell_angle_beta  89.8767
_cell_angle_gamma 90
_cell_volume      51644.5

_symmetry_cell_setting          triclinic
_symmetry_space_group_name_Hall 'P 1'
_symmetry_space_group_name_H-M  'P 1'
_symmetry_Int_Tables_number     1

_symmetry_equiv_pos_as_xyz 'x,y,z'

loop_
_atom_site_label
_atom_site_type_symbol
_atom_site_fract_x
_atom_site_fract_y
_atom_site_fract_z
_atom_site_charge
C1       C      0.388400000000     0.316910000000     0.963660000000     0.290661   
C2       C      0.296660000000     0.296730000000     0.053660000000     0.292122   
C3       C      0.314150000000     0.383150000000     0.951250000000     0.289314   
C4       C      0.300740000000     0.291930000000     0.866770000000     0.288503   
C5       C      0.313170000000     0.604310000000     0.944490000000     0.2891     
C6       C      0.297400000000     0.696130000000     0.050030000000     0.289049   
C7       C      0.383340000000     0.676770000000     0.968450000000     0.287978   
C8       C      0.292430000000     0.690510000000     0.862480000000     0.288044   
C9       C      0.609920000000     0.318890000000     0.966740000000     0.29051    
C10      C      0.701440000000     0.300090000000     0.877050000000     0.291614   
C11      C      0.682050000000     0.386830000000     0.979790000000     0.289602   
C12      C      0.698030000000     0.295470000000     0.063830000000     0.288607   
C13      C      0.675530000000     0.608130000000     0.984520000000     0.289135   
C14      C      0.690460000000     0.699870000000     0.882740000000     0.290125   
C15      C      0.604650000000     0.678940000000     0.974870000000     0.288766   
C16      C      0.696630000000     0.697150000000     0.068440000000     0.288853   
C17      C      0.797380000000     0.200740000000     0.559590000000     0.28834    
C18      C      0.818700000000     0.107090000000     0.471840000000     0.288681   
C19      C      0.795270000000     0.197520000000     0.380590000000     0.287872   
C20      C      0.887710000000     0.174920000000     0.469630000000     0.288287   
C21      C      0.884570000000     0.816500000000     0.472130000000     0.28997    
C22      C      0.790550000000     0.795680000000     0.566370000000     0.288741   
C23      C      0.816590000000     0.885360000000     0.479790000000     0.287276   
C24      C      0.794460000000     0.793650000000     0.386200000000     0.287327   
C25      C      0.198390000000     0.793370000000     0.366460000000     0.288525   
C26      C      0.106250000000     0.815630000000     0.461620000000     0.288982   
C27      C      0.196510000000     0.790070000000     0.546500000000     0.288622   
C28      C      0.175180000000     0.883290000000     0.456310000000     0.288767   
C29      C      0.199850000000     0.198120000000     0.370750000000     0.288554   
C30      C      0.177470000000     0.105010000000     0.460950000000     0.289019   
C31      C      0.202200000000     0.194940000000     0.550320000000     0.288096   
C32      C      0.109450000000     0.173700000000     0.460190000000     0.288481   
C33      C      0.168710000000     0.962740000000     0.412790000000    -0.0562767  
C34      C      0.179670000000     0.977780000000     0.457810000000     0.0217111  
C35      C      0.189720000000     0.961370000000     0.501880000000    -0.0562841  
C36      C      0.188530000000     0.930690000000     0.501190000000     0.0127557  
C37      C      0.177300000000     0.915720000000     0.456380000000    -0.0729341  
C38      C      0.167570000000     0.932060000000     0.412060000000     0.0125779  
C39      C      0.180070000000     0.010450000000     0.459120000000     0.0217737  
C40      C      0.187720000000     0.026640000000     0.413150000000    -0.0563526  
C41      C      0.187180000000     0.057340000000     0.413920000000     0.0128315  
C42      C      0.179020000000     0.072550000000     0.460710000000    -0.0731556  
C43      C      0.171750000000     0.056420000000     0.506900000000     0.0126646  
C44      C      0.172240000000     0.025720000000     0.506100000000    -0.05635    
C45      C      0.963660000000     0.804990000000     0.514160000000    -0.0564021  
C46      C      0.979050000000     0.812560000000     0.467190000000     0.0218392  
C47      C      0.962970000000     0.820750000000     0.421450000000    -0.0564241  
C48      C      0.932290000000     0.821650000000     0.422850000000     0.0129008  
C49      C      0.916980000000     0.814490000000     0.470050000000    -0.0736417  
C50      C      0.932980000000     0.805980000000     0.515600000000     0.0130826  
C51      C      0.011730000000     0.812550000000     0.466210000000     0.0217314  
C52      C      0.027750000000     0.822990000000     0.510480000000    -0.0563089  
C53      C      0.058440000000     0.823680000000     0.509170000000     0.0126534  
C54      C      0.073810000000     0.814060000000     0.463510000000    -0.0730315  
C55      C      0.057870000000     0.803400000000     0.419390000000     0.0127735  
C56      C      0.027170000000     0.802620000000     0.420750000000    -0.0562495  
C57      C      0.820870000000     0.027400000000     0.427990000000    -0.0563444  
C58      C      0.814430000000     0.012600000000     0.476120000000     0.0217785  
C59      C      0.808820000000     0.029250000000     0.522570000000    -0.0563723  
C60      C      0.809940000000     0.059930000000     0.521050000000     0.0127581  
C61      C      0.816640000000     0.074660000000     0.473040000000    -0.0731027  
C62      C      0.821930000000     0.058080000000     0.426460000000     0.0125919  
C63      C      0.814060000000     0.979940000000     0.477970000000     0.0215387  
C64      C      0.802000000000     0.963600000000     0.435490000000    -0.0560874  
C65      C      0.802510000000     0.932900000000     0.436420000000     0.0123284  
C66      C      0.815050000000     0.917830000000     0.479900000000    -0.0722513  
C67      C      0.826720000000     0.934100000000     0.522760000000     0.0121736  
C68      C      0.826260000000     0.964810000000     0.521790000000    -0.0560992  
C69      C      0.031510000000     0.187270000000     0.507730000000    -0.0562466  
C70      C      0.014930000000     0.177540000000     0.463610000000     0.0217117  
C71      C      0.029820000000     0.167140000000     0.417870000000    -0.0562598  
C72      C      0.060510000000     0.166250000000     0.416490000000     0.0124849  
C73      C      0.077010000000     0.175620000000     0.460890000000    -0.0728756  
C74      C      0.062190000000     0.186280000000     0.506420000000     0.0126791  
C75      C      0.982260000000     0.177710000000     0.465600000000     0.0217034  
C76      C      0.967290000000     0.169650000000     0.512780000000    -0.0562502  
C77      C      0.936600000000     0.169090000000     0.514290000000     0.0124945  
C78      C      0.920160000000     0.176460000000     0.468600000000    -0.0729533  
C79      C      0.935060000000     0.184780000000     0.421580000000     0.0126984  
C80      C      0.965750000000     0.185450000000     0.420120000000    -0.0562617  
C81      C      0.723630000000     0.711160000000     0.744820000000    -0.056481   
C82      C      0.730200000000     0.741350000000     0.745430000000     0.0218021  
C83      C      0.722730000000     0.757960000000     0.791040000000    -0.0563505  
C84      C      0.709480000000     0.744580000000     0.835380000000     0.0128082  
C85      C      0.703330000000     0.714310000000     0.835010000000    -0.0734212  
C86      C      0.710320000000     0.697800000000     0.789090000000     0.013057   
C87      C      0.745400000000     0.755280000000     0.699160000000     0.0217233  
C88      C      0.768870000000     0.740850000000     0.673550000000    -0.0563177  
C89      C      0.783480000000     0.753990000000     0.630480000000     0.0127589  
C90      C      0.774930000000     0.781850000000     0.611930000000    -0.0733281  
C91      C      0.751420000000     0.796280000000     0.637360000000     0.01267    
C92      C      0.736840000000     0.783160000000     0.680590000000    -0.0564008  
C93      C      0.754460000000     0.717820000000     0.170940000000    -0.056232   
C94      C      0.738930000000     0.737480000000     0.204110000000     0.0218242  
C95      C      0.709300000000     0.743420000000     0.192400000000    -0.0563231  
C96      C      0.695640000000     0.730310000000     0.148370000000     0.0129527  
C97      C      0.711200000000     0.710770000000     0.115200000000    -0.0732544  
C98      C      0.740710000000     0.704540000000     0.127050000000     0.0126433  
C99      C      0.753510000000     0.751900000000     0.250560000000     0.0216793  
C100     C      0.773580000000     0.736350000000     0.282680000000    -0.0561536  
C101     C      0.787020000000     0.749930000000     0.326570000000     0.012411   
C102     C      0.780560000000     0.779280000000     0.339500000000    -0.0726946  
C103     C      0.760590000000     0.794860000000     0.307410000000     0.0125415  
C104     C      0.747310000000     0.781370000000     0.263360000000    -0.0561217  
C105     C      0.711940000000     0.263030000000     0.742330000000    -0.0566659  
C106     C      0.742660000000     0.259960000000     0.739720000000     0.0220524  
C107     C      0.759760000000     0.270900000000     0.782220000000    -0.0565594  
C108     C      0.746420000000     0.284240000000     0.826560000000     0.0133875  
C109     C      0.715700000000     0.286900000000     0.829400000000    -0.0741531  
C110     C      0.698620000000     0.276310000000     0.786690000000     0.0134103  
C111     C      0.756710000000     0.244960000000     0.693260000000     0.0216239  
C112     C      0.743880000000     0.219660000000     0.670880000000    -0.0561729  
C113     C      0.757060000000     0.205400000000     0.627420000000     0.0126205  
C114     C      0.783420000000     0.216050000000     0.605390000000    -0.0729356  
C115     C      0.796300000000     0.241310000000     0.627670000000     0.01253    
C116     C      0.783080000000     0.255620000000     0.671130000000    -0.0561418  
C117     C      0.779220000000     0.249950000000     0.266510000000    -0.0561221  
C118     C      0.752610000000     0.238850000000     0.246310000000     0.0216582  
C119     C      0.740200000000     0.213870000000     0.270680000000    -0.0561048  
C120     C      0.754060000000     0.200390000000     0.314220000000     0.0124358  
C121     C      0.780570000000     0.211630000000     0.334430000000    -0.0726941  
C122     C      0.793000000000     0.236550000000     0.310100000000     0.0125254  
C123     C      0.737950000000     0.253300000000     0.200010000000     0.0217908  
C124     C      0.737560000000     0.284110000000     0.195660000000    -0.0562171  
C125     C      0.724460000000     0.297750000000     0.151610000000     0.012674   
C126     C      0.711300000000     0.280920000000     0.110960000000    -0.0728759  
C127     C      0.711330000000     0.250150000000     0.115500000000     0.0126924  
C128     C      0.724550000000     0.236480000000     0.159510000000    -0.0562001  
C129     C      0.695630000000     0.466320000000     0.941800000000    -0.0560926  
C130     C      0.685320000000     0.481250000000     0.987540000000     0.0216437  
C131     C      0.675530000000     0.464720000000     0.031730000000    -0.0564783  
C132     C      0.675160000000     0.434060000000     0.029620000000     0.0127409  
C133     C      0.684650000000     0.419180000000     0.983330000000    -0.0725664  
C134     C      0.695320000000     0.435600000000     0.939730000000     0.0126353  
C135     C      0.683540000000     0.513880000000     0.988340000000     0.0217709  
C136     C      0.706020000000     0.531200000000     0.965950000000    -0.05642    
C137     C      0.703650000000     0.561860000000     0.965250000000     0.0128337  
C138     C      0.678740000000     0.575810000000     0.986870000000    -0.0733657  
C139     C      0.656440000000     0.558520000000     0.009750000000     0.012629   
C140     C      0.658800000000     0.527930000000     0.010430000000    -0.0563758  
C141     C      0.210150000000     0.735790000000     0.658940000000    -0.0563592  
C142     C      0.237100000000     0.745740000000     0.679600000000     0.0217693  
C143     C      0.250530000000     0.770380000000     0.656010000000    -0.0563081  
C144     C      0.237370000000     0.784720000000     0.612770000000     0.012738   
C145     C      0.210440000000     0.774780000000     0.592170000000    -0.0732183  
C146     C      0.196960000000     0.750150000000     0.615670000000     0.0126706  
C147     C      0.251110000000     0.730650000000     0.725800000000     0.0217802  
C148     C      0.234130000000     0.720950000000     0.769540000000    -0.0563268  
C149     C      0.247490000000     0.707550000000     0.813670000000     0.0126309  
C150     C      0.278090000000     0.703590000000     0.815000000000    -0.0730679  
C151     C      0.295020000000     0.712920000000     0.771000000000     0.0127321  
C152     C      0.281680000000     0.726280000000     0.726900000000    -0.0563672  
C153     C      0.251950000000     0.779560000000     0.252560000000    -0.0563895  
C154     C      0.242000000000     0.752480000000     0.232390000000     0.0217876  
C155     C      0.217490000000     0.739090000000     0.256590000000    -0.0563201  
C156     C      0.203310000000     0.752410000000     0.300010000000     0.0127047  
C157     C      0.213310000000     0.779430000000     0.320230000000    -0.073192   
C158     C      0.237760000000     0.792890000000     0.296030000000     0.0126732  
C159     C      0.257040000000     0.738200000000     0.186230000000     0.0217421  
C160     C      0.266590000000     0.754920000000     0.142090000000    -0.0562355  
C161     C      0.280040000000     0.741330000000     0.098100000000     0.0125865  
C162     C      0.284210000000     0.710740000000     0.097330000000    -0.0730829  
C163     C      0.275020000000     0.694070000000     0.141710000000     0.0127946  
C164     C      0.261600000000     0.707650000000     0.185660000000    -0.0563055  
C165     C      0.461530000000     0.699460000000     0.936490000000    -0.0562911  
C166     C      0.477570000000     0.683490000000     0.974770000000     0.021642   
C167     C      0.462220000000     0.666290000000     0.012360000000    -0.0562543  
C168     C      0.431580000000     0.664620000000     0.011030000000     0.0124227  
C169     C      0.415600000000     0.680130000000     0.972100000000    -0.0725913  
C170     C      0.430860000000     0.697830000000     0.935210000000     0.0125201  
C171     C      0.510230000000     0.683960000000     0.974580000000     0.0217285  
C172     C      0.525940000000     0.682300000000     0.926020000000    -0.0562446  
C173     C      0.556640000000     0.681160000000     0.925990000000     0.0124632  
C174     C      0.572270000000     0.681690000000     0.974510000000    -0.0726626  
C175     C      0.556610000000     0.683960000000     0.022980000000     0.0128219  
C176     C      0.525930000000     0.685070000000     0.023010000000    -0.0565039  
C177     C      0.261750000000     0.280750000000     0.734410000000    -0.0563255  
C178     C      0.260590000000     0.249940000000     0.730590000000     0.0217946  
C179     C      0.273460000000     0.233020000000     0.771490000000    -0.0561899  
C180     C      0.286830000000     0.246610000000     0.815470000000     0.0126934  
C181     C      0.287540000000     0.277400000000     0.819540000000    -0.0729641  
C182     C      0.275000000000     0.294310000000     0.778400000000     0.0127391  
C183     C      0.245630000000     0.235620000000     0.684470000000     0.0216859  
C184     C      0.219310000000     0.247280000000     0.664100000000    -0.0561644  
C185     C      0.205270000000     0.234070000000     0.620570000000     0.0125905  
C186     C      0.217140000000     0.208800000000     0.596490000000    -0.0728504  
C187     C      0.243360000000     0.196980000000     0.616910000000     0.0124515  
C188     C      0.257470000000     0.210270000000     0.660410000000    -0.0561297  
C189     C      0.214340000000     0.252450000000     0.258560000000    -0.0563183  
C190     C      0.240920000000     0.241870000000     0.237100000000     0.0217069  
C191     C      0.253820000000     0.216800000000     0.260110000000    -0.0562718  
C192     C      0.240490000000     0.202670000000     0.303530000000     0.0127548  
C193     C      0.213930000000     0.213230000000     0.324900000000    -0.0731652  
C194     C      0.200990000000     0.238270000000     0.301990000000     0.0126721  
C195     C      0.255110000000     0.256730000000     0.190680000000     0.022029   
C196     C      0.238150000000     0.267240000000     0.147670000000    -0.0565589  
C197     C      0.251600000000     0.280510000000     0.103420000000     0.0134804  
C198     C      0.282300000000     0.283550000000     0.101180000000    -0.0742848  
C199     C      0.299240000000     0.273360000000     0.144380000000     0.0134743  
C200     C      0.285800000000     0.260140000000     0.188640000000    -0.0566424  
C201     C      0.467010000000     0.290300000000     0.948540000000    -0.0565552  
C202     C      0.482900000000     0.315100000000     0.965490000000     0.0217969  
C203     C      0.467470000000     0.340080000000     0.982900000000    -0.0568804  
C204     C      0.436810000000     0.340430000000     0.982880000000     0.0132512  
C205     C      0.420870000000     0.315870000000     0.965040000000    -0.0739475  
C206     C      0.436250000000     0.290740000000     0.948020000000     0.0130421  
C207     C      0.515480000000     0.315330000000     0.964330000000     0.0218206  
C208     C      0.531730000000     0.291650000000     0.984980000000    -0.0565749  
C209     C      0.562480000000     0.292640000000     0.985640000000     0.0129851  
C210     C      0.577490000000     0.317190000000     0.965100000000    -0.0738446  
C211     C      0.561180000000     0.340570000000     0.943530000000     0.013274   
C212     C      0.530540000000     0.339700000000     0.943350000000    -0.0569446  
C213     C      0.315400000000     0.460700000000     0.896600000000    -0.056485   
C214     C      0.307020000000     0.477280000000     0.941720000000     0.0217149  
C215     C      0.299460000000     0.462430000000     0.989260000000    -0.0561238  
C216     C      0.301030000000     0.431780000000     0.992020000000     0.0126628  
C217     C      0.310290000000     0.415340000000     0.947360000000    -0.0725138  
C218     C      0.317080000000     0.430090000000     0.899420000000     0.0127028  
C219     C      0.307490000000     0.509940000000     0.939940000000     0.0217531  
C220     C      0.330460000000     0.524760000000     0.913550000000    -0.0563729  
C221     C      0.331890000000     0.555400000000     0.914050000000     0.012845   
C222     C      0.310450000000     0.571980000000     0.941070000000    -0.0734766  
C223     C      0.287150000000     0.557280000000     0.966610000000     0.0128018  
C224     C      0.285680000000     0.526580000000     0.966020000000    -0.0563417  
Cd1      Cd     0.325010000000     0.320990000000     0.959750000000     0.506698   
Cd2      Cd     0.321040000000     0.667010000000     0.956450000000     0.506912   
Cd3      Cd     0.673170000000     0.324310000000     0.971170000000     0.506751   
Cd4      Cd     0.667530000000     0.671070000000     0.977240000000     0.506441   
Cd5      Cd     0.824440000000     0.170290000000     0.470550000000     0.506932   
Cd6      Cd     0.821410000000     0.822180000000     0.477090000000     0.506747   
Cd7      Cd     0.169440000000     0.820170000000     0.457430000000     0.507241   
Cd8      Cd     0.172630000000     0.168240000000     0.460240000000     0.50707    
H1       H      0.198670000000     0.972240000000     0.536880000000     0.0500168  
H2       H      0.196310000000     0.918710000000     0.535900000000     0.0472971  
H3       H      0.158710000000     0.921170000000     0.377000000000     0.0467336  
H4       H      0.160410000000     0.974690000000     0.378460000000     0.0498798  
H5       H      0.194270000000     0.015590000000     0.376540000000     0.0500211  
H6       H      0.193030000000     0.069150000000     0.377730000000     0.0472413  
H7       H      0.165290000000     0.067500000000     0.543540000000     0.0466892  
H8       H      0.165850000000     0.013950000000     0.542010000000     0.0499196  
H9       H      0.974110000000     0.827100000000     0.384820000000     0.0499013  
H10      H      0.920590000000     0.828380000000     0.387120000000     0.0464812  
H11      H      0.921810000000     0.800190000000     0.552520000000     0.0472099  
H12      H      0.975320000000     0.798150000000     0.549860000000     0.0500474  
H13      H      0.016590000000     0.831210000000     0.545840000000     0.049882   
H14      H      0.070080000000     0.832120000000     0.543750000000     0.0467321  
H15      H      0.069090000000     0.795710000000     0.383690000000     0.0472348  
H16      H      0.015540000000     0.794060000000     0.386260000000     0.0499999  
H17      H      0.803400000000     0.018570000000     0.560110000000     0.049983   
H18      H      0.805640000000     0.072090000000     0.557600000000     0.0471848  
H19      H      0.827250000000     0.068780000000     0.388880000000     0.0467483  
H20      H      0.825690000000     0.015270000000     0.391640000000     0.0499284  
H21      H      0.792030000000     0.974530000000     0.401520000000     0.0499354  
H22      H      0.793220000000     0.920990000000     0.402870000000     0.0476133  
H23      H      0.836620000000     0.923130000000     0.556770000000     0.0466816  
H24      H      0.836070000000     0.976700000000     0.554860000000     0.0497909  
H25      H      0.017770000000     0.159100000000     0.383460000000     0.0498328  
H26      H      0.071290000000     0.157820000000     0.380890000000     0.0466764  
H27      H      0.074290000000     0.193790000000     0.541190000000     0.0472829  
H28      H      0.020780000000     0.195820000000     0.543270000000     0.0499495  
H29      H      0.979280000000     0.163170000000     0.548320000000     0.0498476  
H30      H      0.925760000000     0.162490000000     0.551070000000     0.0467349  
H31      H      0.923010000000     0.190720000000     0.385760000000     0.0472131  
H32      H      0.976540000000     0.192190000000     0.383380000000     0.0499311  
H33      H      0.727770000000     0.781200000000     0.793000000000     0.0501144  
H34      H      0.704380000000     0.757900000000     0.870210000000     0.04652    
H35      H      0.705770000000     0.674460000000     0.787470000000     0.047212   
H36      H      0.728720000000     0.697830000000     0.710010000000     0.050077   
H37      H      0.776280000000     0.719540000000     0.687340000000     0.0502646  
H38      H      0.801560000000     0.742320000000     0.611820000000     0.0473828  
H39      H      0.744280000000     0.817750000000     0.623910000000     0.0465755  
H40      H      0.718660000000     0.794720000000     0.699130000000     0.0499874  
H41      H      0.696500000000     0.758010000000     0.217590000000     0.049902   
H42      H      0.672810000000     0.735410000000     0.140510000000     0.0474376  
H43      H      0.753290000000     0.689630000000     0.102090000000     0.0464283  
H44      H      0.777400000000     0.713030000000     0.178330000000     0.049858   
H45      H      0.778580000000     0.713530000000     0.274460000000     0.0497627  
H46      H      0.802260000000     0.737330000000     0.350680000000     0.0466346  
H47      H      0.755300000000     0.817580000000     0.316120000000     0.0476012  
H48      H      0.732400000000     0.794190000000     0.238990000000     0.0499183  
H49      H      0.783440000000     0.268590000000     0.781790000000     0.050111   
H50      H      0.760180000000     0.292130000000     0.858920000000     0.0464995  
H51      H      0.674900000000     0.278160000000     0.787540000000     0.046755   
H52      H      0.698150000000     0.255290000000     0.709930000000     0.0500757  
H53      H      0.723830000000     0.210580000000     0.687440000000     0.0500813  
H54      H      0.746640000000     0.185910000000     0.611310000000     0.0473894  
H55      H      0.816580000000     0.250090000000     0.611470000000     0.0468308  
H56      H      0.793360000000     0.275250000000     0.686980000000     0.0499024  
H57      H      0.719550000000     0.204950000000     0.256590000000     0.0498846  
H58      H      0.743890000000     0.181260000000     0.332220000000     0.0468346  
H59      H      0.813500000000     0.245660000000     0.324550000000     0.0474357  
H60      H      0.789660000000     0.268840000000     0.248190000000     0.0499746  
H61      H      0.747230000000     0.297770000000     0.226540000000     0.0498507  
H62      H      0.724660000000     0.321520000000     0.149450000000     0.0470897  
H63      H      0.701430000000     0.236580000000     0.084740000000     0.0468206  
H64      H      0.724750000000     0.212710000000     0.161240000000     0.0499871  
H65      H      0.667920000000     0.475510000000     0.067920000000     0.0497447  
H66      H      0.666990000000     0.422040000000     0.064040000000     0.0469942  
H67      H      0.702760000000     0.424760000000     0.903470000000     0.046847   
H68      H      0.703060000000     0.478360000000     0.906860000000     0.0500507  
H69      H      0.725500000000     0.521080000000     0.949120000000     0.0499437  
H70      H      0.721240000000     0.574600000000     0.947450000000     0.0469711  
H71      H      0.636920000000     0.568570000000     0.026570000000     0.046572   
H72      H      0.640860000000     0.515270000000     0.027230000000     0.0498047  
H73      H      0.271070000000     0.778890000000     0.671440000000     0.0501874  
H74      H      0.248260000000     0.803700000000     0.595660000000     0.0473214  
H75      H      0.176230000000     0.741910000000     0.600590000000     0.0468256  
H76      H      0.199390000000     0.716670000000     0.675790000000     0.0499011  
H77      H      0.210580000000     0.724270000000     0.770230000000     0.0500931  
H78      H      0.233850000000     0.700660000000     0.847030000000     0.0466589  
H79      H      0.318650000000     0.710060000000     0.770710000000     0.0474985  
H80      H      0.295340000000     0.733070000000     0.693520000000     0.0499721  
H81      H      0.208990000000     0.718450000000     0.241540000000     0.0502261  
H82      H      0.184470000000     0.741520000000     0.317660000000     0.0473007  
H83      H      0.246040000000     0.813690000000     0.310790000000     0.0468239  
H84      H      0.270960000000     0.790290000000     0.235220000000     0.0499251  
H85      H      0.263140000000     0.778460000000     0.141000000000     0.0500253  
H86      H      0.286820000000     0.754760000000     0.064440000000     0.0465745  
H87      H      0.278030000000     0.670470000000     0.142440000000     0.0474759  
H88      H      0.254920000000     0.694190000000     0.219360000000     0.0500095  
H89      H      0.473920000000     0.653440000000     0.041970000000     0.0499507  
H90      H      0.420470000000     0.650730000000     0.039920000000     0.0466768  
H91      H      0.419160000000     0.710100000000     0.904790000000     0.0475168  
H92      H      0.472680000000     0.713200000000     0.907430000000     0.049974   
H93      H      0.514490000000     0.681080000000     0.888050000000     0.0501208  
H94      H      0.568080000000     0.679390000000     0.887990000000     0.0465211  
H95      H      0.568020000000     0.684550000000     0.061050000000     0.0474866  
H96      H      0.514510000000     0.686760000000     0.061040000000     0.0498899  
H97      H      0.272680000000     0.209250000000     0.770120000000     0.0499934  
H98      H      0.296250000000     0.232990000000     0.846620000000     0.0467531  
H99      H      0.275340000000     0.318090000000     0.780190000000     0.0471413  
H100     H      0.252530000000     0.294460000000     0.703200000000     0.0498762  
H101     H      0.209300000000     0.266480000000     0.682210000000     0.0499968  
H102     H      0.185010000000     0.243610000000     0.605950000000     0.047468   
H103     H      0.253090000000     0.177560000000     0.599110000000     0.0468282  
H104     H      0.277890000000     0.200920000000     0.674680000000     0.049893   
H105     H      0.274040000000     0.207800000000     0.244080000000     0.0501268  
H106     H      0.250970000000     0.183350000000     0.320160000000     0.0473549  
H107     H      0.180560000000     0.247000000000     0.317670000000     0.046766   
H108     H      0.204010000000     0.271900000000     0.242210000000     0.0499769  
H109     H      0.214490000000     0.264660000000     0.147650000000     0.0500973  
H110     H      0.237940000000     0.288080000000     0.070680000000     0.0465061  
H111     H      0.322940000000     0.275500000000     0.143980000000     0.0467018  
H112     H      0.299480000000     0.252720000000     0.221440000000     0.0500681  
H113     H      0.479130000000     0.359380000000     0.996810000000     0.0502717  
H114     H      0.425620000000     0.360110000000     0.996350000000     0.0466504  
H115     H      0.424550000000     0.271470000000     0.934130000000     0.0464816  
H116     H      0.478380000000     0.270800000000     0.934650000000     0.0503856  
H117     H      0.520660000000     0.272660000000     0.001670000000     0.0504182  
H118     H      0.574460000000     0.274280000000     0.002440000000     0.0465442  
H119     H      0.572080000000     0.359770000000     0.927280000000     0.0466621  
H120     H      0.518590000000     0.358100000000     0.926580000000     0.0503021  
H121     H      0.293230000000     0.474510000000     0.024950000000     0.0501146  
H122     H      0.295710000000     0.421040000000     0.029560000000     0.0468511  
H123     H      0.324080000000     0.418030000000     0.864170000000     0.0470692  
H124     H      0.320870000000     0.471390000000     0.859090000000     0.0496594  
H125     H      0.347870000000     0.512660000000     0.893730000000     0.0498309  
H126     H      0.350190000000     0.566070000000     0.894140000000     0.0466231  
H127     H      0.270230000000     0.569460000000     0.987630000000     0.0470914  
H128     H      0.267480000000     0.515880000000     0.986120000000     0.0498803  
O1       O      0.324300000000     0.298300000000     0.049480000000    -0.239113   
O2       O      0.299410000000     0.319450000000     0.873150000000    -0.234615   
O3       O      0.373140000000     0.296990000000     0.941860000000    -0.235173   
O4       O      0.307320000000     0.368940000000     0.993160000000    -0.234757   
O5       O      0.325530000000     0.368470000000     0.913410000000    -0.232063   
O6       O      0.374350000000     0.338220000000     0.983590000000    -0.238647   
O7       O      0.282040000000     0.306600000000     0.014530000000    -0.237713   
O8       O      0.313550000000     0.277630000000     0.903410000000    -0.234861   
O9       O      0.300220000000     0.668520000000     0.047580000000    -0.233577   
O10      O      0.320040000000     0.688080000000     0.865620000000    -0.232371   
O11      O      0.295370000000     0.619790000000     0.971370000000    -0.233154   
O12      O      0.369270000000     0.659680000000     0.999190000000    -0.237571   
O13      O      0.368450000000     0.689860000000     0.932960000000    -0.231094   
O14      O      0.334160000000     0.617920000000     0.922400000000    -0.239104   
O15      O      0.305860000000     0.710430000000     0.009320000000    -0.238686   
O16      O      0.277900000000     0.681740000000     0.902710000000    -0.237892   
O17      O      0.673810000000     0.301090000000     0.881910000000    -0.238953   
O18      O      0.699750000000     0.322940000000     0.056990000000    -0.235187   
O19      O      0.623690000000     0.339580000000     0.944170000000    -0.238039   
O20      O      0.690700000000     0.372590000000     0.939020000000    -0.234873   
O21      O      0.669880000000     0.372020000000     0.016600000000    -0.233224   
O22      O      0.625420000000     0.300230000000     0.991460000000    -0.234711   
O23      O      0.716130000000     0.310540000000     0.915640000000    -0.237318   
O24      O      0.684640000000     0.281190000000     0.027820000000    -0.234786   
O25      O      0.684920000000     0.672640000000     0.883560000000    -0.23413    
O26      O      0.671200000000     0.704850000000     0.053830000000    -0.232902   
O27      O      0.694700000000     0.624470000000     0.963000000000    -0.232412   
O28      O      0.619460000000     0.676130000000     0.932110000000    -0.23736    
O29      O      0.619000000000     0.678410000000     0.018250000000    -0.230746   
O30      O      0.653050000000     0.620940000000     0.002980000000    -0.239413   
O31      O      0.685060000000     0.713890000000     0.925470000000    -0.239049   
O32      O      0.708820000000     0.677260000000     0.040750000000    -0.237943   
O33      O      0.815530000000     0.122440000000     0.513770000000    -0.234418   
O34      O      0.872500000000     0.179220000000     0.427960000000    -0.233765   
O35      O      0.785700000000     0.178500000000     0.537930000000    -0.235216   
O36      O      0.785660000000     0.174090000000     0.401560000000    -0.235521   
O37      O      0.818240000000     0.208250000000     0.401280000000    -0.234495   
O38      O      0.821670000000     0.209030000000     0.540000000000    -0.236065   
O39      O      0.824240000000     0.121010000000     0.429080000000    -0.236544   
O40      O      0.873620000000     0.168710000000     0.511940000000    -0.236206   
O41      O      0.812280000000     0.783430000000     0.543970000000    -0.235179   
O42      O      0.786720000000     0.818930000000     0.401840000000    -0.232136   
O43      O      0.870380000000     0.812250000000     0.515110000000    -0.234582   
O44      O      0.827270000000     0.871080000000     0.518700000000    -0.236268   
O45      O      0.807870000000     0.870370000000     0.440150000000    -0.230965   
O46      O      0.869520000000     0.823120000000     0.431300000000    -0.238637   
O47      O      0.783010000000     0.820360000000     0.547590000000    -0.237881   
O48      O      0.814720000000     0.781420000000     0.412710000000    -0.236147   
O49      O      0.120620000000     0.808910000000     0.419870000000    -0.233575   
O50      O      0.182280000000     0.868120000000     0.496780000000    -0.233315   
O51      O      0.176640000000     0.781470000000     0.389450000000    -0.234935   
O52      O      0.172040000000     0.782010000000     0.527610000000    -0.23671    
O53      O      0.208410000000     0.812010000000     0.524190000000    -0.234694   
O54      O      0.206720000000     0.817760000000     0.385410000000    -0.236843   
O55      O      0.121150000000     0.824210000000     0.501460000000    -0.237092   
O56      O      0.165670000000     0.869210000000     0.416150000000    -0.236913   
O57      O      0.182230000000     0.119970000000     0.419080000000    -0.234175   
O58      O      0.124680000000     0.179780000000     0.501090000000    -0.233372   
O59      O      0.211490000000     0.176020000000     0.392860000000    -0.235218   
O60      O      0.211360000000     0.171310000000     0.529400000000    -0.235913   
O61      O      0.179490000000     0.206120000000     0.529520000000    -0.234332   
O62      O      0.175510000000     0.206500000000     0.390020000000    -0.236627   
O63      O      0.170740000000     0.119340000000     0.502720000000    -0.236946   
O64      O      0.123480000000     0.165350000000     0.419030000000    -0.236592   


