data_structure

_audit_creation_method RASPA-1.0
_audit_creation_date 2023-5-22
_audit_author_name 'Poobodin Mano'

_cell_length_a    36.8676
_cell_length_b    36.5665
_cell_length_c    36.5601
_cell_angle_alpha 90
_cell_angle_beta  90
_cell_angle_gamma 90
_cell_volume      49287.4

_symmetry_cell_setting          triclinic
_symmetry_space_group_name_Hall 'P 1'
_symmetry_space_group_name_H-M  'P 1'
_symmetry_Int_Tables_number     1

_symmetry_equiv_pos_as_xyz 'x,y,z'

loop_
_atom_site_label
_atom_site_type_symbol
_atom_site_fract_x
_atom_site_fract_y
_atom_site_fract_z
_atom_site_charge
C1       C      0.890740000000     0.395760000000     0.895220000000     0.290014   
C2       C      0.800420000000     0.395740000000     0.804110000000     0.289976   
C3       C      0.891130000000     0.304960000000     0.803810000000     0.290446   
C4       C      0.800080000000     0.304900000000     0.895500000000     0.290512   
C5       C      0.050130000000     0.554450000000     0.054240000000     0.289936   
C6       C      0.141210000000     0.645370000000     0.054190000000     0.290618   
C7       C      0.050210000000     0.644740000000     0.145120000000     0.290131   
C8       C      0.141220000000     0.553740000000     0.145100000000     0.290535   
C9       C      0.300140000000     0.804800000000     0.895460000000     0.290531   
C10      C      0.300470000000     0.895640000000     0.804080000000     0.290001   
C11      C      0.390850000000     0.895580000000     0.895140000000     0.29004    
C12      C      0.391150000000     0.804830000000     0.803690000000     0.290384   
C13      C      0.641200000000     0.145320000000     0.054130000000     0.290643   
C14      C      0.550200000000     0.054310000000     0.054170000000     0.290129   
C15      C      0.641270000000     0.053690000000     0.145040000000     0.290603   
C16      C      0.550170000000     0.144600000000     0.145030000000     0.290218   
C17      C      0.300220000000     0.394250000000     0.303700000000     0.290652   
C18      C      0.390900000000     0.303430000000     0.304040000000     0.290025   
C19      C      0.391270000000     0.394300000000     0.395400000000     0.290601   
C20      C      0.300580000000     0.303500000000     0.395150000000     0.290222   
C21      C      0.641190000000     0.554500000000     0.645000000000     0.290193   
C22      C      0.550130000000     0.645450000000     0.644960000000     0.290396   
C23      C      0.641230000000     0.644790000000     0.554130000000     0.290257   
C24      C      0.550200000000     0.553810000000     0.554040000000     0.290529   
C25      C      0.891000000000     0.803600000000     0.304160000000     0.290017   
C26      C      0.800290000000     0.894370000000     0.303800000000     0.290579   
C27      C      0.800630000000     0.803590000000     0.395210000000     0.29014    
C28      C      0.891300000000     0.894420000000     0.395570000000     0.290529   
C29      C      0.050180000000     0.145540000000     0.645180000000     0.29056    
C30      C      0.141230000000     0.054580000000     0.645150000000     0.290141   
C31      C      0.050190000000     0.053910000000     0.554280000000     0.290583   
C32      C      0.141230000000     0.144860000000     0.554280000000     0.290231   
C33      C      0.974040000000     0.933000000000     0.443420000000    -0.056508   
C34      C      0.959080000000     0.962200000000     0.463420000000     0.0218943  
C35      C      0.921580000000     0.968780000000     0.460930000000    -0.0565567  
C36      C      0.899580000000     0.946770000000     0.438920000000     0.0131985  
C37      C      0.914570000000     0.917630000000     0.418950000000    -0.0736912  
C38      C      0.952020000000     0.910940000000     0.421460000000     0.0130055  
C39      C      0.982500000000     0.985730000000     0.486720000000     0.0217028  
C40      C      0.010510000000     0.970360000000     0.507840000000    -0.0563076  
C41      C      0.032520000000     0.992490000000     0.529730000000     0.0128738  
C42      C      0.026970000000     0.030480000000     0.531050000000    -0.0735022  
C43      C      0.999000000000     0.045890000000     0.509980000000     0.0130489  
C44      C      0.977040000000     0.023770000000     0.488040000000    -0.0564096  
C45      C      0.718140000000     0.706260000000     0.523360000000    -0.056474   
C46      C      0.709410000000     0.712310000000     0.486400000000     0.0218459  
C47      C      0.678030000000     0.695870000000     0.471960000000    -0.0563628  
C48      C      0.655930000000     0.673920000000     0.493940000000     0.0128811  
C49      C      0.664670000000     0.667960000000     0.530870000000    -0.0733143  
C50      C      0.695990000000     0.684370000000     0.545350000000     0.0131283  
C51      C      0.732900000000     0.735690000000     0.463020000000     0.0217882  
C52      C      0.748200000000     0.768060000000     0.476950000000    -0.0563073  
C53      C      0.770240000000     0.790060000000     0.454960000000     0.0128261  
C54      C      0.777410000000     0.780240000000     0.418520000000    -0.0732249  
C55      C      0.762160000000     0.747920000000     0.404540000000     0.0130613  
C56      C      0.740180000000     0.725870000000     0.426550000000    -0.0564213  
C57      C      0.240090000000     0.225840000000     0.426570000000    -0.0564486  
C58      C      0.232880000000     0.235660000000     0.463050000000     0.0218271  
C59      C      0.248240000000     0.268010000000     0.476960000000    -0.056355   
C60      C      0.270270000000     0.289980000000     0.454940000000     0.0128999  
C61      C      0.277380000000     0.280160000000     0.418490000000    -0.0733013  
C62      C      0.262060000000     0.247870000000     0.404530000000     0.0131107  
C63      C      0.209390000000     0.212310000000     0.486460000000     0.0217974  
C64      C      0.177970000000     0.195910000000     0.472070000000    -0.0563333  
C65      C      0.155880000000     0.173980000000     0.494070000000     0.0128759  
C66      C      0.164660000000     0.168010000000     0.530980000000    -0.0732453  
C67      C      0.196030000000     0.184370000000     0.545430000000     0.0130584  
C68      C      0.218160000000     0.206240000000     0.523410000000    -0.0563974  
C69      C      0.510570000000     0.470270000000     0.507570000000    -0.0564293  
C70      C      0.482530000000     0.485630000000     0.486480000000     0.0218281  
C71      C      0.477040000000     0.523670000000     0.487820000000    -0.056522   
C72      C      0.499010000000     0.545790000000     0.509770000000     0.0132004  
C73      C      0.527000000000     0.530390000000     0.530800000000    -0.0737125  
C74      C      0.532570000000     0.492400000000     0.529450000000     0.0130407  
C75      C      0.459100000000     0.462100000000     0.463190000000     0.0218427  
C76      C      0.474040000000     0.432910000000     0.443170000000    -0.0564419  
C77      C      0.452020000000     0.410850000000     0.421230000000     0.01301    
C78      C      0.414560000000     0.417520000000     0.418750000000    -0.0737029  
C79      C      0.399580000000     0.446640000000     0.438750000000     0.0132127  
C80      C      0.421590000000     0.468660000000     0.460750000000    -0.0565203  
C81      C      0.717510000000     0.932910000000     0.255970000000    -0.0564613  
C82      C      0.732450000000     0.962070000000     0.235920000000     0.0218789  
C83      C      0.769960000000     0.968650000000     0.238350000000    -0.0565411  
C84      C      0.791980000000     0.946660000000     0.260380000000     0.0131341  
C85      C      0.776990000000     0.917560000000     0.280410000000    -0.0736154  
C86      C      0.739540000000     0.910880000000     0.277940000000     0.0129859  
C87      C      0.709010000000     0.985580000000     0.212610000000     0.0217487  
C88      C      0.680970000000     0.970190000000     0.191550000000    -0.0563665  
C89      C      0.658950000000     0.992300000000     0.169650000000     0.0129073  
C90      C      0.664510000000     0.030290000000     0.168280000000    -0.0735587  
C91      C      0.692510000000     0.045720000000     0.189280000000     0.0130829  
C92      C      0.714490000000     0.023620000000     0.211230000000    -0.0564192  
C93      C      0.451320000000     0.225700000000     0.272680000000    -0.0564318  
C94      C      0.458560000000     0.235500000000     0.236200000000     0.0218285  
C95      C      0.443240000000     0.267850000000     0.222260000000    -0.0563742  
C96      C      0.421220000000     0.289860000000     0.244260000000     0.0128285  
C97      C      0.414090000000     0.280060000000     0.280720000000    -0.0732068  
C98      C      0.429370000000     0.247760000000     0.294700000000     0.0130694  
C99      C      0.482030000000     0.212100000000     0.212810000000     0.0218397  
C100     C      0.513440000000     0.195690000000     0.227220000000    -0.0563992  
C101     C      0.535510000000     0.173730000000     0.205230000000     0.0129515  
C102     C      0.526740000000     0.167750000000     0.168320000000    -0.0733229  
C103     C      0.495400000000     0.184140000000     0.153850000000     0.0131095  
C104     C      0.473270000000     0.206030000000     0.175860000000    -0.0564541  
C105     C      0.240100000000     0.973420000000     0.772750000000    -0.0564461  
C106     C      0.232810000000     0.963610000000     0.736290000000     0.0218555  
C107     C      0.248070000000     0.931230000000     0.722350000000    -0.0563511  
C108     C      0.270090000000     0.909210000000     0.744340000000     0.0128476  
C109     C      0.277270000000     0.919020000000     0.780780000000    -0.0732168  
C110     C      0.262050000000     0.951350000000     0.794760000000     0.0130701  
C111     C      0.209340000000     0.987020000000     0.712900000000     0.0217388  
C112     C      0.177970000000     0.003490000000     0.727330000000    -0.0562038  
C113     C      0.155900000000     0.025460000000     0.705360000000     0.0128173  
C114     C      0.164650000000     0.031410000000     0.668430000000    -0.0732349  
C115     C      0.195960000000     0.014970000000     0.653950000000     0.0131021  
C116     C      0.218080000000     0.993060000000     0.675940000000    -0.0564393  
C117     C      0.421450000000     0.730540000000     0.738240000000    -0.0564962  
C118     C      0.458960000000     0.737110000000     0.735810000000     0.0218402  
C119     C      0.473910000000     0.766270000000     0.755860000000    -0.0564169  
C120     C      0.451890000000     0.788310000000     0.777830000000     0.0129152  
C121     C      0.414430000000     0.781640000000     0.780290000000    -0.0735531  
C122     C      0.399440000000     0.752540000000     0.760260000000     0.0131031  
C123     C      0.482390000000     0.713590000000     0.712500000000     0.0218085  
C124     C      0.476900000000     0.675550000000     0.711130000000    -0.0564591  
C125     C      0.498880000000     0.653440000000     0.689190000000     0.0130742  
C126     C      0.526890000000     0.668860000000     0.668180000000    -0.0735569  
C127     C      0.532460000000     0.706850000000     0.669550000000     0.0129306  
C128     C      0.510440000000     0.728970000000     0.691440000000    -0.0564147  
C129     C      0.443260000000     0.931070000000     0.976910000000    -0.0563663  
C130     C      0.458580000000     0.963430000000     0.962990000000     0.021851   
C131     C      0.451320000000     0.973260000000     0.926520000000    -0.0564728  
C132     C      0.429350000000     0.951220000000     0.904500000000     0.0131385  
C133     C      0.414070000000     0.918910000000     0.918460000000    -0.0732751  
C134     C      0.421220000000     0.909080000000     0.954900000000     0.0128615  
C135     C      0.482060000000     0.986800000000     0.986390000000     0.0217329  
C136     C      0.473310000000     0.992850000000     0.023350000000    -0.0564265  
C137     C      0.495440000000     0.014740000000     0.045350000000     0.0131098  
C138     C      0.526780000000     0.031140000000     0.030890000000    -0.0732227  
C139     C      0.535540000000     0.025180000000     0.993960000000     0.0128056  
C140     C      0.513460000000     0.003230000000     0.971970000000    -0.0562549  
C141     C      0.943380000000     0.768070000000     0.222390000000    -0.0564111  
C142     C      0.958670000000     0.735690000000     0.236310000000     0.0218414  
C143     C      0.951410000000     0.725870000000     0.272780000000    -0.0564209  
C144     C      0.929460000000     0.747920000000     0.294810000000     0.0130425  
C145     C      0.914200000000     0.780250000000     0.280840000000    -0.0732499  
C146     C      0.921370000000     0.790070000000     0.244400000000     0.0128905  
C147     C      0.982130000000     0.712290000000     0.212910000000     0.0217728  
C148     C      0.973370000000     0.706250000000     0.175960000000    -0.056397   
C149     C      0.995480000000     0.684340000000     0.153950000000     0.0130588  
C150     C      0.026800000000     0.667910000000     0.168410000000    -0.0732366  
C151     C      0.035570000000     0.673860000000     0.205330000000     0.0128475  
C152     C      0.013510000000     0.695830000000     0.227320000000    -0.056288   
C153     C      0.217390000000     0.766250000000     0.943310000000    -0.0564653  
C154     C      0.232330000000     0.737040000000     0.963310000000     0.0218192  
C155     C      0.269830000000     0.730450000000     0.960820000000    -0.0564647  
C156     C      0.291840000000     0.752450000000     0.938800000000     0.0131429  
C157     C      0.276850000000     0.781590000000     0.918830000000    -0.0736581  
C158     C      0.239410000000     0.788290000000     0.921350000000     0.0130318  
C159     C      0.208900000000     0.713520000000     0.986620000000     0.0218496  
C160     C      0.180900000000     0.728910000000     0.007730000000    -0.0564825  
C161     C      0.158890000000     0.706780000000     0.029630000000     0.013025   
C162     C      0.164420000000     0.668790000000     0.030950000000    -0.0736642  
C163     C      0.192390000000     0.653370000000     0.009890000000     0.0131497  
C164     C      0.214350000000     0.675480000000     0.987940000000    -0.0564798  
C165     C      0.180870000000     0.470190000000     0.191570000000    -0.0564173  
C166     C      0.208950000000     0.485550000000     0.212600000000     0.0217999  
C167     C      0.214460000000     0.523590000000     0.211220000000    -0.0564828  
C168     C      0.192480000000     0.545710000000     0.189300000000     0.0131451  
C169     C      0.164450000000     0.530310000000     0.168310000000    -0.0736306  
C170     C      0.158850000000     0.492330000000     0.169690000000     0.012983   
C171     C      0.232390000000     0.462020000000     0.235890000000     0.021892   
C172     C      0.217440000000     0.432870000000     0.255950000000    -0.0564735  
C173     C      0.239470000000     0.410810000000     0.277900000000     0.0129987  
C174     C      0.276930000000     0.417460000000     0.280330000000    -0.0736937  
C175     C      0.291920000000     0.446550000000     0.260280000000     0.0132231  
C176     C      0.269910000000     0.468560000000     0.238280000000    -0.0565911  
C177     C      0.973930000000     0.266380000000     0.756060000000    -0.0565212  
C178     C      0.958990000000     0.237220000000     0.736000000000     0.0219013  
C179     C      0.921480000000     0.230670000000     0.738390000000    -0.0565521  
C180     C      0.899460000000     0.252670000000     0.760400000000     0.0131745  
C181     C      0.914440000000     0.281760000000     0.780440000000    -0.0736134  
C182     C      0.951890000000     0.288420000000     0.778010000000     0.0130106  
C183     C      0.982440000000     0.213700000000     0.712710000000     0.0217572  
C184     C      0.010510000000     0.229070000000     0.691670000000    -0.0563741  
C185     C      0.032540000000     0.206940000000     0.669800000000     0.0129631  
C186     C      0.026950000000     0.168960000000     0.668410000000    -0.0735633  
C187     C      0.998920000000     0.153550000000     0.689390000000     0.0130928  
C188     C      0.976940000000     0.175660000000     0.711320000000    -0.0564686  
C189     C      0.714360000000     0.175500000000     0.987930000000    -0.0565753  
C190     C      0.708860000000     0.213540000000     0.986590000000     0.0218682  
C191     C      0.680820000000     0.228890000000     0.007670000000    -0.0564567  
C192     C      0.658810000000     0.206740000000     0.029550000000     0.0130321  
C193     C      0.664400000000     0.168760000000     0.030900000000    -0.0737038  
C194     C      0.692400000000     0.153370000000     0.009860000000     0.0132282  
C195     C      0.732280000000     0.237080000000     0.963300000000     0.0218067  
C196     C      0.769800000000     0.230530000000     0.960860000000    -0.0564725  
C197     C      0.791800000000     0.252560000000     0.938860000000     0.0131343  
C198     C      0.776800000000     0.281680000000     0.918870000000    -0.0736369  
C199     C      0.739350000000     0.288330000000     0.921340000000     0.0130034  
C200     C      0.717330000000     0.266260000000     0.943280000000    -0.0564361  
C201     C      0.718080000000     0.493080000000     0.675880000000    -0.0564326  
C202     C      0.709290000000     0.487010000000     0.712820000000     0.0218374  
C203     C      0.677870000000     0.503420000000     0.727210000000    -0.0563801  
C204     C      0.655810000000     0.525370000000     0.705210000000     0.0129409  
C205     C      0.664600000000     0.531350000000     0.668290000000    -0.0733606  
C206     C      0.695960000000     0.514970000000     0.653850000000     0.0131024  
C207     C      0.732760000000     0.463630000000     0.736230000000     0.021796   
C208     C      0.748100000000     0.431280000000     0.722310000000    -0.0563072  
C209     C      0.770110000000     0.409280000000     0.744320000000     0.0128097  
C210     C      0.777220000000     0.419090000000     0.780780000000    -0.073176   
C211     C      0.761920000000     0.451390000000     0.794750000000     0.0130169  
C212     C      0.739970000000     0.473430000000     0.772710000000    -0.0563865  
C213     C      0.973180000000     0.493070000000     0.023420000000    -0.0563236  
C214     C      0.981930000000     0.487000000000     0.986470000000     0.0217356  
C215     C      0.013340000000     0.503400000000     0.972050000000    -0.0562781  
C216     C      0.035440000000     0.525340000000     0.994040000000     0.0127655  
C217     C      0.026680000000     0.531310000000     0.030960000000    -0.0731037  
C218     C      0.995330000000     0.514940000000     0.045430000000     0.0129565  
C219     C      0.958440000000     0.463630000000     0.963080000000     0.0218372  
C220     C      0.943100000000     0.431280000000     0.977010000000    -0.0564019  
C221     C      0.921070000000     0.409290000000     0.955000000000     0.0128697  
C222     C      0.913940000000     0.419110000000     0.918550000000    -0.0732236  
C223     C      0.929230000000     0.451410000000     0.904580000000     0.0130716  
C224     C      0.951200000000     0.473440000000     0.926600000000    -0.0564075  
Cd1      Cd     0.845590000000     0.350070000000     0.849670000000     0.506761   
Cd2      Cd     0.095960000000     0.599570000000     0.099670000000     0.506812   
Cd3      Cd     0.345650000000     0.849940000000     0.849590000000     0.506746   
Cd4      Cd     0.595980000000     0.099480000000     0.099590000000     0.506849   
Cd5      Cd     0.345750000000     0.349130000000     0.349570000000     0.50678    
Cd6      Cd     0.595410000000     0.599640000000     0.599530000000     0.506842   
Cd7      Cd     0.845810000000     0.849270000000     0.349690000000     0.506767   
Cd8      Cd     0.095430000000     0.099730000000     0.599730000000     0.506824   
H1       H      0.909090000000     0.990700000000     0.476360000000     0.0499363  
H2       H      0.870790000000     0.952540000000     0.437660000000     0.0468808  
H3       H      0.964410000000     0.888760000000     0.406310000000     0.0465568  
H4       H      0.002880000000     0.927460000000     0.444320000000     0.049986   
H5       H      0.015160000000     0.941110000000     0.507850000000     0.0499048  
H6       H      0.053780000000     0.979780000000     0.545750000000     0.0466133  
H7       H      0.994130000000     0.075100000000     0.510300000000     0.0469021  
H8       H      0.956060000000     0.036570000000     0.471740000000     0.0499344  
H9       H      0.670220000000     0.700360000000     0.443760000000     0.0499569  
H10      H      0.631900000000     0.661760000000     0.482000000000     0.0467929  
H11      H      0.703530000000     0.680190000000     0.573680000000     0.0468399  
H12      H      0.742360000000     0.718080000000     0.535230000000     0.0499708  
H13      H      0.742750000000     0.776700000000     0.504750000000     0.0499237  
H14      H      0.781490000000     0.814870000000     0.466500000000     0.0467669  
H15      H      0.767290000000     0.739530000000     0.376600000000     0.0469121  
H16      H      0.729260000000     0.700880000000     0.415100000000     0.0499732  
H17      H      0.242840000000     0.276650000000     0.504770000000     0.0499382  
H18      H      0.281570000000     0.314780000000     0.466470000000     0.0467486  
H19      H      0.267140000000     0.239480000000     0.376580000000     0.0468988  
H20      H      0.229130000000     0.200860000000     0.415130000000     0.0499794  
H21      H      0.170130000000     0.200420000000     0.443880000000     0.049951   
H22      H      0.131820000000     0.161850000000     0.482160000000     0.046801   
H23      H      0.203600000000     0.180180000000     0.573750000000     0.0468604  
H24      H      0.242420000000     0.218030000000     0.535240000000     0.0499457  
H25      H      0.456040000000     0.536470000000     0.471540000000     0.0499485  
H26      H      0.494110000000     0.575000000000     0.510110000000     0.046866   
H27      H      0.553850000000     0.479690000000     0.545450000000     0.0465737  
H28      H      0.515230000000     0.441020000000     0.507560000000     0.0499293  
H29      H      0.502890000000     0.427390000000     0.444040000000     0.0499462  
H30      H      0.464400000000     0.388680000000     0.406050000000     0.0465651  
H31      H      0.370780000000     0.452400000000     0.437530000000     0.046885   
H32      H      0.409100000000     0.490570000000     0.476200000000     0.0499349  
H33      H      0.782440000000     0.990540000000     0.222880000000     0.0499434  
H34      H      0.820770000000     0.952420000000     0.261590000000     0.0468997  
H35      H      0.727160000000     0.888730000000     0.293150000000     0.0465627  
H36      H      0.688660000000     0.927390000000     0.255120000000     0.0499509  
H37      H      0.676320000000     0.940940000000     0.191580000000     0.0499139  
H38      H      0.637660000000     0.979570000000     0.153680000000     0.0465937  
H39      H      0.697390000000     0.074920000000     0.188910000000     0.0469032  
H40      H      0.735490000000     0.036440000000     0.227490000000     0.0499386  
H41      H      0.448660000000     0.276470000000     0.194460000000     0.0499637  
H42      H      0.409950000000     0.314660000000     0.232720000000     0.046771   
H43      H      0.424270000000     0.239390000000     0.322650000000     0.0469061  
H44      H      0.462260000000     0.200720000000     0.284140000000     0.0499721  
H45      H      0.521270000000     0.200190000000     0.255410000000     0.0499712  
H46      H      0.559570000000     0.161590000000     0.217150000000     0.0467765  
H47      H      0.487830000000     0.179950000000     0.125530000000     0.0468442  
H48      H      0.449030000000     0.217830000000     0.164010000000     0.0499678  
H49      H      0.242620000000     0.922590000000     0.694550000000     0.0499346  
H50      H      0.281320000000     0.884380000000     0.732800000000     0.0467596  
H51      H      0.267190000000     0.959730000000     0.822700000000     0.0469028  
H52      H      0.229200000000     0.998420000000     0.784210000000     0.0499615  
H53      H      0.170170000000     0.999010000000     0.755540000000     0.0498863  
H54      H      0.131880000000     0.037640000000     0.717290000000     0.0468229  
H55      H      0.203500000000     0.019140000000     0.625620000000     0.0468614  
H56      H      0.242290000000     0.981210000000     0.664070000000     0.0499493  
H57      H      0.502760000000     0.771780000000     0.755000000000     0.0499429  
H58      H      0.464280000000     0.810450000000     0.793030000000     0.0465826  
H59      H      0.370650000000     0.746790000000     0.761480000000     0.0469112  
H60      H      0.408960000000     0.708650000000     0.722770000000     0.0499347  
H61      H      0.455890000000     0.662740000000     0.727390000000     0.0499326  
H62      H      0.493990000000     0.624240000000     0.688820000000     0.0469049  
H63      H      0.553750000000     0.719560000000     0.653580000000     0.0466032  
H64      H      0.515100000000     0.758210000000     0.691470000000     0.0499403  
H65      H      0.462260000000     0.998250000000     0.915080000000     0.0499724  
H66      H      0.424230000000     0.959620000000     0.876550000000     0.0468931  
H67      H      0.409950000000     0.884270000000     0.966430000000     0.0467548  
H68      H      0.448690000000     0.922420000000     0.004710000000     0.0499482  
H69      H      0.449070000000     0.981040000000     0.035200000000     0.0499484  
H70      H      0.487890000000     0.018920000000     0.073680000000     0.0468616  
H71      H      0.559580000000     0.037330000000     0.982040000000     0.0468168  
H72      H      0.521280000000     0.998740000000     0.943780000000     0.0499172  
H73      H      0.962320000000     0.700870000000     0.284230000000     0.0499599  
H74      H      0.924330000000     0.739540000000     0.322750000000     0.046916   
H75      H      0.910120000000     0.814890000000     0.232870000000     0.0467457  
H76      H      0.948820000000     0.776710000000     0.194600000000     0.0499662  
H77      H      0.949140000000     0.718090000000     0.164110000000     0.0499378  
H78      H      0.987910000000     0.680180000000     0.125620000000     0.0468476  
H79      H      0.059600000000     0.661680000000     0.217250000000     0.0467972  
H80      H      0.021340000000     0.700310000000     0.255520000000     0.049939   
H81      H      0.282320000000     0.708520000000     0.976250000000     0.0499105  
H82      H      0.320630000000     0.746670000000     0.937550000000     0.0468942  
H83      H      0.227030000000     0.810480000000     0.906190000000     0.0465547  
H84      H      0.188550000000     0.771790000000     0.944210000000     0.0499589  
H85      H      0.176270000000     0.758150000000     0.007740000000     0.0499714  
H86      H      0.137640000000     0.719500000000     0.045650000000     0.046589   
H87      H      0.197250000000     0.624160000000     0.010210000000     0.0468882  
H88      H      0.235330000000     0.662660000000     0.971630000000     0.0499186  
H89      H      0.235490000000     0.536380000000     0.227470000000     0.0499374  
H90      H      0.197400000000     0.574910000000     0.188930000000     0.0468834  
H91      H      0.137540000000     0.479620000000     0.153740000000     0.0465906  
H92      H      0.176190000000     0.440950000000     0.191600000000     0.0499393  
H93      H      0.188590000000     0.427370000000     0.255120000000     0.049966   
H94      H      0.227090000000     0.388670000000     0.293120000000     0.0465653  
H95      H      0.320720000000     0.452290000000     0.261470000000     0.046881   
H96      H      0.282390000000     0.490440000000     0.222800000000     0.0499699  
H97      H      0.909000000000     0.208780000000     0.722910000000     0.0499475  
H98      H      0.870660000000     0.246920000000     0.761580000000     0.046885   
H99      H      0.964270000000     0.310560000000     0.793230000000     0.046554   
H100     H      0.002780000000     0.271880000000     0.755240000000     0.0499925  
H101     H      0.015190000000     0.258310000000     0.691710000000     0.0499343  
H102     H      0.053840000000     0.219660000000     0.653840000000     0.0465943  
H103     H      0.994010000000     0.124350000000     0.689020000000     0.0468933  
H104     H      0.955920000000     0.162860000000     0.727570000000     0.0499359  
H105     H      0.676140000000     0.258130000000     0.007670000000     0.0499515  
H106     H      0.637530000000     0.219440000000     0.045550000000     0.0465813  
H107     H      0.697310000000     0.124160000000     0.010200000000     0.046865   
H108     H      0.735360000000     0.162710000000     0.971650000000     0.049967   
H109     H      0.782290000000     0.208620000000     0.976310000000     0.0499218  
H110     H      0.820590000000     0.246810000000     0.937640000000     0.0469024  
H111     H      0.726960000000     0.310500000000     0.906160000000     0.0465645  
H112     H      0.688480000000     0.271770000000     0.944150000000     0.0499465  
H113     H      0.670030000000     0.498910000000     0.755400000000     0.0499573  
H114     H      0.631740000000     0.537510000000     0.717110000000     0.0467799  
H115     H      0.703550000000     0.519160000000     0.625540000000     0.0468457  
H116     H      0.742330000000     0.481280000000     0.664040000000     0.0499542  
H117     H      0.742700000000     0.422640000000     0.694500000000     0.0499264  
H118     H      0.781410000000     0.384480000000     0.732790000000     0.046772   
H119     H      0.767000000000     0.459760000000     0.822700000000     0.0469171  
H120     H      0.729010000000     0.498410000000     0.784160000000     0.0499505  
H121     H      0.021160000000     0.498900000000     0.943860000000     0.0499526  
H122     H      0.059490000000     0.537470000000     0.982120000000     0.0468251  
H123     H      0.987770000000     0.519140000000     0.073750000000     0.0468794  
H124     H      0.948930000000     0.481280000000     0.035280000000     0.0499204  
H125     H      0.948510000000     0.422650000000     0.004810000000     0.0499731  
H126     H      0.909780000000     0.384490000000     0.966540000000     0.0467548  
H127     H      0.924130000000     0.459790000000     0.876630000000     0.0469023  
H128     H      0.962150000000     0.498430000000     0.915150000000     0.0499442  
O1       O      0.806070000000     0.403080000000     0.837450000000    -0.234285   
O2       O      0.833610000000     0.298670000000     0.891650000000    -0.235027   
O3       O      0.885080000000     0.403100000000     0.861890000000    -0.234358   
O4       O      0.903610000000     0.332110000000     0.821170000000    -0.237776   
O5       O      0.857600000000     0.298730000000     0.807630000000    -0.235012   
O6       O      0.875490000000     0.367280000000     0.907480000000    -0.236765   
O7       O      0.815680000000     0.367270000000     0.791860000000    -0.236781   
O8       O      0.787590000000     0.332070000000     0.878190000000    -0.237835   
O9       O      0.146450000000     0.611310000000     0.056980000000    -0.235289   
O10      O      0.146510000000     0.587790000000     0.142260000000    -0.235285   
O11      O      0.077730000000     0.570670000000     0.041590000000    -0.236557   
O12      O      0.043800000000     0.640100000000     0.111430000000    -0.234598   
O13      O      0.077780000000     0.628470000000     0.157750000000    -0.236691   
O14      O      0.043730000000     0.559110000000     0.087930000000    -0.234544   
O15      O      0.115010000000     0.658280000000     0.072420000000    -0.237614   
O16      O      0.114960000000     0.540860000000     0.126930000000    -0.237587   
O17      O      0.315670000000     0.867150000000     0.791820000000    -0.236848   
O18      O      0.403640000000     0.831980000000     0.821040000000    -0.237782   
O19      O      0.287660000000     0.831980000000     0.878160000000    -0.237851   
O20      O      0.375610000000     0.867090000000     0.907390000000    -0.236763   
O21      O      0.385170000000     0.902950000000     0.861820000000    -0.23435    
O22      O      0.333660000000     0.798540000000     0.891570000000    -0.235015   
O23      O      0.306190000000     0.903000000000     0.837410000000    -0.234263   
O24      O      0.357620000000     0.798590000000     0.807540000000    -0.234954   
O25      O      0.577790000000     0.070550000000     0.041520000000    -0.236604   
O26      O      0.577770000000     0.128380000000     0.157670000000    -0.236665   
O27      O      0.646480000000     0.111260000000     0.056930000000    -0.235252   
O28      O      0.615040000000     0.040790000000     0.126860000000    -0.23765    
O29      O      0.646520000000     0.087750000000     0.142210000000    -0.235269   
O30      O      0.614970000000     0.158190000000     0.072330000000    -0.237693   
O31      O      0.543800000000     0.058960000000     0.087850000000    -0.234668   
O32      O      0.543770000000     0.139940000000     0.111350000000    -0.234694   
O33      O      0.375660000000     0.331910000000     0.291770000000    -0.236765   
O34      O      0.315850000000     0.331960000000     0.407390000000    -0.236905   
O35      O      0.287740000000     0.367120000000     0.321070000000    -0.237899   
O36      O      0.403760000000     0.367130000000     0.378080000000    -0.237822   
O37      O      0.357750000000     0.400540000000     0.391550000000    -0.235073   
O38      O      0.333750000000     0.400480000000     0.307520000000    -0.235044   
O39      O      0.385230000000     0.296100000000     0.337370000000    -0.234381   
O40      O      0.306230000000     0.296140000000     0.361820000000    -0.234395   
O41      O      0.544870000000     0.611380000000     0.642140000000    -0.235155   
O42      O      0.576430000000     0.540930000000     0.572250000000    -0.237581   
O43      O      0.613580000000     0.570720000000     0.657620000000    -0.236642   
O44      O      0.647610000000     0.640140000000     0.587820000000    -0.234661   
O45      O      0.613660000000     0.628550000000     0.541470000000    -0.236733   
O46      O      0.647610000000     0.559160000000     0.611320000000    -0.234639   
O47      O      0.576370000000     0.658340000000     0.626780000000    -0.237598   
O48      O      0.544930000000     0.587870000000     0.556860000000    -0.235247   
O49      O      0.833810000000     0.900620000000     0.307640000000    -0.23506    
O50      O      0.857780000000     0.900670000000     0.391680000000    -0.235033   
O51      O      0.885300000000     0.796240000000     0.337480000000    -0.234342   
O52      O      0.806330000000     0.796230000000     0.361890000000    -0.234372   
O53      O      0.815840000000     0.832080000000     0.407470000000    -0.23686    
O54      O      0.875780000000     0.832100000000     0.291910000000    -0.236756   
O55      O      0.787810000000     0.867220000000     0.321150000000    -0.237855   
O56      O      0.903790000000     0.867240000000     0.378270000000    -0.23783    
O57      O      0.113660000000     0.070840000000     0.657810000000    -0.236643   
O58      O      0.113630000000     0.128650000000     0.541650000000    -0.236708   
O59      O      0.044890000000     0.111490000000     0.642340000000    -0.235296   
O60      O      0.076390000000     0.041020000000     0.572500000000    -0.237693   
O61      O      0.044940000000     0.087980000000     0.557060000000    -0.235212   
O62      O      0.076430000000     0.158430000000     0.627010000000    -0.237627   
O63      O      0.147610000000     0.059210000000     0.611460000000    -0.234645   
O64      O      0.147650000000     0.140200000000     0.587960000000    -0.23466    


