data_structure

_audit_creation_method RASPA-1.0
_audit_creation_date 2023-5-22
_audit_author_name 'Poobodin Mano'

_cell_length_a    25.4811
_cell_length_b    26.421
_cell_length_c    23.8127
_cell_angle_alpha 90
_cell_angle_beta  90
_cell_angle_gamma 90
_cell_volume      16031.6

_symmetry_cell_setting          triclinic
_symmetry_space_group_name_Hall 'P 1'
_symmetry_space_group_name_H-M  'P 1'
_symmetry_Int_Tables_number     1

_symmetry_equiv_pos_as_xyz 'x,y,z'

loop_
_atom_site_label
_atom_site_type_symbol
_atom_site_fract_x
_atom_site_fract_y
_atom_site_fract_z
_atom_site_charge
C1       C      0.919730000000     0.434570000000     0.962330000000     0.336873   
C2       C      0.802410000000     0.418270000000     0.823820000000     0.340524   
C3       C      0.956690000000     0.304790000000     0.827430000000     0.341705   
C4       C      0.821940000000     0.276070000000     0.945400000000     0.339726   
C5       C      0.030260000000     0.551300000000     0.111140000000     0.338514   
C6       C      0.160500000000     0.517150000000     0.257530000000     0.339245   
C7       C      0.203060000000     0.629040000000     0.126910000000     0.340061   
C8       C      0.052930000000     0.668460000000     0.242370000000     0.339615   
C9       C      0.306350000000     0.761320000000     0.999310000000     0.339019   
C10      C      0.421740000000     0.897690000000     0.007940000000     0.343719   
C11      C      0.445220000000     0.766700000000     0.872880000000     0.340565   
C12      C      0.306010000000     0.884920000000     0.852580000000     0.342529   
C13      C      0.675330000000     0.186190000000     0.070060000000     0.341921   
C14      C      0.550910000000     0.045210000000     0.075180000000     0.341655   
C15      C      0.682200000000     0.070210000000     0.208600000000     0.33988    
C16      C      0.537490000000     0.183500000000     0.201610000000     0.340473   
C17      C      0.267900000000     0.391670000000     0.384240000000     0.341432   
C18      C      0.400980000000     0.293820000000     0.317130000000     0.341736   
C19      C      0.455010000000     0.421520000000     0.435480000000     0.341778   
C20      C      0.352130000000     0.295240000000     0.517190000000     0.341113   
C21      C      0.548840000000     0.673460000000     0.706690000000     0.342223   
C22      C      0.685910000000     0.692000000000     0.577380000000     0.340469   
C23      C      0.687090000000     0.559760000000     0.711240000000     0.340554   
C24      C      0.572560000000     0.554030000000     0.553430000000     0.339688   
C25      C      0.815120000000     0.951560000000     0.341130000000     0.341662   
C26      C      0.793430000000     0.839740000000     0.479290000000     0.343209   
C27      C      0.920130000000     0.804010000000     0.334320000000     0.342888   
C28      C      0.961510000000     0.929940000000     0.462270000000     0.338685   
C29      C      0.224820000000     0.170680000000     0.618870000000     0.341655   
C30      C      0.077300000000     0.159050000000     0.736410000000     0.341559   
C31      C      0.102840000000     0.039560000000     0.585540000000     0.341755   
C32      C      0.205980000000     0.037450000000     0.750510000000     0.342313   
C33      C      0.058530000000     0.032120000000     0.493500000000    -0.0124112  
C34      C      0.089200000000     0.955190000000     0.542860000000    -0.0234293  
C35      C      0.004210000000     0.009700000000     0.484530000000    -0.015854   
C36      C      0.037240000000     0.927100000000     0.529880000000     0.0215787  
C37      C      0.765530000000     0.745840000000     0.573600000000    -0.0154392  
C38      C      0.699050000000     0.747140000000     0.494490000000    -0.0268401  
C39      C      0.768280000000     0.803880000000     0.570900000000    -0.014644   
C40      C      0.701250000000     0.805110000000     0.495960000000     0.0252901  
C41      C      0.300730000000     0.184560000000     0.556070000000    -0.015814   
C42      C      0.253820000000     0.258810000000     0.602860000000    -0.0268613  
C43      C      0.352860000000     0.212690000000     0.564590000000    -0.0141997  
C44      C      0.307860000000     0.283000000000     0.611900000000     0.0247723  
C45      C      0.546140000000     0.438000000000     0.466810000000    -0.0123538  
C46      C      0.493240000000     0.507370000000     0.426680000000    -0.0228383  
C47      C      0.558980000000     0.468420000000     0.519340000000    -0.0156303  
C48      C      0.507370000000     0.543260000000     0.475770000000     0.0211509  
C49      C      0.764510000000     0.022300000000     0.216580000000    -0.0144372  
C50      C      0.707790000000     0.040330000000     0.302620000000    -0.0250965  
C51      C      0.781020000000     0.974850000000     0.248590000000    -0.0127878  
C52      C      0.757970000000     0.027010000000     0.335740000000     0.0248118  
C53      C      0.471510000000     0.190500000000     0.277460000000    -0.0155905  
C54      C      0.500700000000     0.268130000000     0.222940000000    -0.0267941  
C55      C      0.414890000000     0.209990000000     0.274590000000    -0.014435   
C56      C      0.443000000000     0.284650000000     0.220170000000     0.0245136  
C57      C      0.300870000000     0.943150000000     0.771280000000    -0.014446   
C58      C      0.219780000000     0.920890000000     0.825520000000    -0.0253054  
C59      C      0.289610000000     0.999470000000     0.780740000000    -0.0154117  
C60      C      0.209350000000     0.977520000000     0.835330000000     0.0227836  
C61      C      0.522540000000     0.753360000000     0.753430000000    -0.0147804  
C62      C      0.472310000000     0.672850000000     0.771010000000    -0.0258449  
C63      C      0.526470000000     0.761890000000     0.816970000000    -0.0151503  
C64      C      0.478270000000     0.681770000000     0.834470000000     0.0233837  
C65      C      0.472100000000     0.019140000000     0.021230000000    -0.0151887  
C66      C      0.540080000000     0.954850000000     0.049590000000    -0.0263575  
C67      C      0.429130000000     0.984540000000     0.045100000000    -0.0150871  
C68      C      0.496250000000     0.922140000000     0.075000000000     0.0237265  
C69      C      0.995270000000     0.693740000000     0.321340000000    -0.0153334  
C70      C      0.024970000000     0.758060000000     0.249890000000    -0.0261889  
C71      C      0.939100000000     0.713970000000     0.316260000000    -0.014974   
C72      C      0.967960000000     0.776290000000     0.244630000000     0.0232421  
C73      C      0.268150000000     0.738030000000     0.091440000000    -0.0154577  
C74      C      0.251570000000     0.684090000000     0.005240000000    -0.026478   
C75      C      0.276720000000     0.689500000000     0.125580000000    -0.014492   
C76      C      0.262920000000     0.637020000000     0.041060000000     0.0235338  
C77      C      0.199110000000     0.432260000000     0.271640000000    -0.0159577  
C78      C      0.203510000000     0.499690000000     0.348380000000    -0.0271527  
C79      C      0.193870000000     0.391990000000     0.317850000000    -0.0143208  
C80      C      0.195030000000     0.457310000000     0.391330000000     0.024713   
C81      C      0.989490000000     0.198440000000     0.746290000000    -0.0144079  
C82      C      0.058550000000     0.211970000000     0.820050000000    -0.0252142  
C83      C      0.980860000000     0.255770000000     0.743230000000    -0.0156192  
C84      C      0.049960000000     0.269430000000     0.815470000000     0.0221743  
C85      C      0.701060000000     0.224020000000     0.978560000000    -0.0152301  
C86      C      0.755790000000     0.238390000000     0.065500000000    -0.0259906  
C87      C      0.751510000000     0.211870000000     0.945730000000    -0.0151935  
C88      C      0.804330000000     0.221870000000     0.032260000000     0.0237529  
C89      C      0.780500000000     0.461420000000     0.734590000000    -0.014298   
C90      C      0.716140000000     0.460920000000     0.814330000000    -0.0254962  
C91      C      0.772240000000     0.518340000000     0.727650000000    -0.0153601  
C92      C      0.707710000000     0.518250000000     0.806480000000     0.022581   
C93      C      0.949550000000     0.500690000000     0.097530000000    -0.0126065  
C94      C      0.982220000000     0.555470000000     0.020840000000    -0.023652   
C95      C      0.944050000000     0.455670000000     0.058130000000    -0.0161687  
C96      C      0.973570000000     0.513170000000     0.976760000000     0.0218845  
Cd1      Cd     0.875310000000     0.358320000000     0.888730000000     0.508941   
Cd2      Cd     0.111260000000     0.590540000000     0.184490000000     0.508775   
Cd3      Cd     0.369250000000     0.828780000000     0.931830000000     0.508553   
Cd4      Cd     0.608760000000     0.121620000000     0.136860000000     0.508656   
Cd5      Cd     0.369810000000     0.351520000000     0.414640000000     0.50877    
Cd6      Cd     0.621960000000     0.619000000000     0.636390000000     0.508719   
Cd7      Cd     0.874270000000     0.880380000000     0.406680000000     0.509676   
Cd8      Cd     0.151710000000     0.101430000000     0.671140000000     0.509273   
H1       H      0.118910000000     0.946950000000     0.509690000000     0.0498797  
H2       H      0.083250000000     0.022550000000     0.456480000000     0.0474863  
H3       H      0.989500000000     0.023590000000     0.443330000000     0.0551854  
H4       H      0.105460000000     0.940660000000     0.583150000000     0.0566682  
H5       H      0.014640000000     0.924540000000     0.569710000000     0.0470266  
H6       H      0.055250000000     0.074030000000     0.495810000000     0.0539405  
H7       H      0.977500000000     0.025000000000     0.517350000000     0.0545543  
H8       H      0.726790000000     0.733030000000     0.461940000000     0.0574061  
H9       H      0.798500000000     0.730290000000     0.548340000000     0.0527895  
H10      H      0.807860000000     0.816540000000     0.584640000000     0.0551464  
H11      H      0.658870000000     0.734420000000     0.482740000000     0.0589569  
H12      H      0.672980000000     0.817310000000     0.528940000000     0.0417004  
H13      H      0.771420000000     0.733600000000     0.617810000000     0.0549069  
H14      H      0.739230000000     0.819510000000     0.601150000000     0.0484904  
H15      H      0.235530000000     0.275100000000     0.564440000000     0.0583395  
H16      H      0.287420000000     0.190920000000     0.512170000000     0.0542092  
H17      H      0.381150000000     0.201130000000     0.531450000000     0.0546811  
H18      H      0.227890000000     0.267880000000     0.639120000000     0.0581043  
H19      H      0.323660000000     0.266790000000     0.651610000000     0.0406795  
H20      H      0.307850000000     0.143300000000     0.561190000000     0.054695   
H21      H      0.369670000000     0.201030000000     0.605730000000     0.0471573  
H22      H      0.521780000000     0.512080000000     0.391540000000     0.0495221  
H23      H      0.577300000000     0.445280000000     0.435090000000     0.0464144  
H24      H      0.600410000000     0.460280000000     0.531020000000     0.0539473  
H25      H      0.453890000000     0.517800000000     0.409990000000     0.05744    
H26      H      0.471540000000     0.548160000000     0.501870000000     0.0485455  
H27      H      0.546900000000     0.396960000000     0.477090000000     0.0532526  
H28      H      0.534050000000     0.454260000000     0.554330000000     0.0541178  
H29      H      0.689220000000     0.075190000000     0.319910000000     0.0562553  
H30      H      0.797100000000     0.050250000000     0.217390000000     0.0515281  
H31      H      0.818550000000     0.960690000000     0.230560000000     0.0530255  
H32      H      0.678780000000     0.009410000000     0.309000000000     0.0541663  
H33      H      0.745860000000     0.016850000000     0.379190000000     0.0455429  
H34      H      0.757940000000     0.011850000000     0.171880000000     0.0536258  
H35      H      0.751060000000     0.944820000000     0.242070000000     0.0524413  
H36      H      0.520070000000     0.287430000000     0.258960000000     0.0566845  
H37      H      0.488470000000     0.201860000000     0.318590000000     0.0537627  
H38      H      0.392570000000     0.195490000000     0.311310000000     0.054898   
H39      H      0.521380000000     0.279890000000     0.183880000000     0.0584974  
H40      H      0.425840000000     0.265490000000     0.182810000000     0.0411814  
H41      H      0.470910000000     0.148450000000     0.275940000000     0.0545791  
H42      H      0.396200000000     0.194190000000     0.236170000000     0.0474234  
H43      H      0.198530000000     0.908650000000     0.786980000000     0.0545678  
H44      H      0.283180000000     0.931850000000     0.730470000000     0.0505952  
H45      H      0.306540000000     0.021380000000     0.745270000000     0.0550368  
H46      H      0.204660000000     0.898110000000     0.861370000000     0.0582368  
H47      H      0.230780000000     0.987880000000     0.874390000000     0.043827   
H48      H      0.343970000000     0.937230000000     0.768350000000     0.0537394  
H49      H      0.310280000000     0.011570000000     0.819640000000     0.0499713  
H50      H      0.434320000000     0.689250000000     0.756800000000     0.0556327  
H51      H      0.487740000000     0.774410000000     0.737670000000     0.0513434  
H52      H      0.529130000000     0.803180000000     0.825360000000     0.0549105  
H53      H      0.471630000000     0.631550000000     0.761810000000     0.0591728  
H54      H      0.516430000000     0.664500000000     0.846730000000     0.0429689  
H55      H      0.557880000000     0.769470000000     0.732750000000     0.053865   
H56      H      0.563580000000     0.744350000000     0.832010000000     0.0494251  
H57      H      0.547310000000     0.942370000000     0.005600000000     0.0554586  
H58      H      0.475820000000     0.011280000000     0.975520000000     0.051253   
H59      H      0.392000000000     0.991300000000     0.021790000000     0.0540257  
H60      H      0.577180000000     0.949680000000     0.073580000000     0.0580488  
H61      H      0.490360000000     0.935940000000     0.118710000000     0.0425014  
H62      H      0.459880000000     0.059270000000     0.026220000000     0.0538307  
H63      H      0.422150000000     0.995520000000     0.089580000000     0.0487043  
H64      H      0.045730000000     0.782020000000     0.281300000000     0.0550929  
H65      H      0.014420000000     0.712880000000     0.357540000000     0.051591   
H66      H      0.918350000000     0.707610000000     0.356700000000     0.0544106  
H67      H      0.045570000000     0.762300000000     0.208930000000     0.0578126  
H68      H      0.949180000000     0.751790000000     0.212350000000     0.0415518  
H69      H      0.993770000000     0.652550000000     0.330700000000     0.0548099  
H70      H      0.918380000000     0.691500000000     0.283560000000     0.0483905  
H71      H      0.208440000000     0.690750000000     0.004100000000     0.057558   
H72      H      0.226820000000     0.750400000000     0.097440000000     0.0536217  
H73      H      0.266040000000     0.696560000000     0.170150000000     0.0550605  
H74      H      0.265110000000     0.677620000000     0.961380000000     0.0598464  
H75      H      0.306230000000     0.631580000000     0.040320000000     0.0418243  
H76      H      0.294000000000     0.768270000000     0.108400000000     0.0547494  
H77      H      0.319300000000     0.680210000000     0.124550000000     0.0480555  
H78      H      0.246160000000     0.508400000000     0.345410000000     0.0595329  
H79      H      0.240650000000     0.433070000000     0.257390000000     0.0538239  
H80      H      0.210410000000     0.355590000000     0.302570000000     0.0541615  
H81      H      0.183060000000     0.534570000000     0.362860000000     0.0595258  
H82      H      0.151860000000     0.451300000000     0.394080000000     0.0407772  
H83      H      0.174670000000     0.420640000000     0.235170000000     0.0547684  
H84      H      0.151380000000     0.385780000000     0.326140000000     0.0471976  
H85      H      0.033260000000     0.196830000000     0.854290000000     0.0540123  
H86      H      0.960600000000     0.182390000000     0.776430000000     0.0509508  
H87      H      0.939760000000     0.263190000000     0.730020000000     0.0562719  
H88      H      0.100110000000     0.203700000000     0.831200000000     0.0583913  
H89      H      0.076450000000     0.282990000000     0.781500000000     0.0440255  
H90      H      0.981670000000     0.181530000000     0.704390000000     0.0550319  
H91      H      0.006960000000     0.271230000000     0.709920000000     0.0507928  
H92      H      0.752190000000     0.280350000000     0.063370000000     0.0569063  
H93      H      0.691510000000     0.264620000000     0.971730000000     0.0521862  
H94      H      0.746130000000     0.222880000000     0.901060000000     0.0547776  
H95      H      0.760090000000     0.227610000000     0.110460000000     0.0589756  
H96      H      0.805530000000     0.179780000000     0.034310000000     0.0423351  
H97      H      0.668170000000     0.201210000000     0.961260000000     0.0545415  
H98      H      0.757520000000     0.170180000000     0.946800000000     0.0485198  
H99      H      0.685670000000     0.440050000000     0.790070000000     0.0540361  
H100     H      0.753510000000     0.441460000000     0.705320000000     0.0514895  
H101     H      0.780110000000     0.528550000000     0.683180000000     0.0561339  
H102     H      0.711450000000     0.450690000000     0.859410000000     0.0570705  
H103     H      0.736970000000     0.537480000000     0.833810000000     0.0419066  
H104     H      0.821390000000     0.451800000000     0.722310000000     0.0553301  
H105     H      0.801920000000     0.538270000000     0.753830000000     0.0500466  
H106     H      0.946880000000     0.580280000000     0.023250000000     0.0493642  
H107     H      0.911570000000     0.521460000000     0.098180000000     0.0463772  
H108     H      0.908940000000     0.433780000000     0.071590000000     0.055468   
H109     H      0.015570000000     0.579730000000     0.007120000000     0.0574661  
H110     H      0.012730000000     0.497800000000     0.965250000000     0.0477822  
H111     H      0.957310000000     0.486690000000     0.140770000000     0.0534214  
H112     H      0.978680000000     0.430590000000     0.064010000000     0.0547621  
N1       N      0.003360000000     0.953680000000     0.487770000000    -0.15214    
N2       N      0.081880000000     0.010150000000     0.543980000000    -0.150807   
N3       N      0.754870000000     0.820580000000     0.513630000000    -0.154591   
N4       N      0.715560000000     0.727180000000     0.549700000000    -0.150007   
N5       N      0.342350000000     0.267430000000     0.564830000000    -0.15429    
N6       N      0.259630000000     0.203510000000     0.594740000000    -0.150197   
N7       N      0.549950000000     0.523590000000     0.513210000000    -0.152144   
N8       N      0.495540000000     0.454440000000     0.444400000000    -0.150676   
N9       N      0.786370000000     0.984470000000     0.309310000000    -0.155382   
N10      N      0.717440000000     0.045340000000     0.241790000000    -0.149597   
N11      N      0.415740000000     0.265670000000     0.271170000000    -0.154086   
N12      N      0.503700000000     0.212830000000     0.232110000000    -0.150117   
N13      N      0.232510000000     0.007160000000     0.788000000000    -0.153667   
N14      N      0.276480000000     0.913430000000     0.816630000000    -0.151358   
N15      N      0.481510000000     0.737340000000     0.845090000000    -0.153789   
N16      N      0.515360000000     0.699000000000     0.741460000000    -0.150622   
N17      N      0.446920000000     0.931330000000     0.042940000000    -0.154112   
N18      N      0.522740000000     0.008170000000     0.048700000000    -0.150835   
N19      N      0.940480000000     0.767650000000     0.299110000000    -0.154161   
N20      N      0.025330000000     0.705230000000     0.269920000000    -0.150458   
N21      N      0.246640000000     0.647820000000     0.099860000000    -0.153743   
N22      N      0.277040000000     0.728690000000     0.030980000000    -0.149545   
N23      N      0.219660000000     0.410580000000     0.369150000000    -0.154272   
N24      N      0.184880000000     0.483330000000     0.292320000000    -0.149515   
N25      N      0.994700000000     0.279240000000     0.797640000000    -0.153561   
N26      N      0.042900000000     0.187790000000     0.766800000000    -0.15055    
N27      N      0.796700000000     0.237110000000     0.972640000000    -0.154      
N28      N      0.708900000000     0.215540000000     0.039310000000    -0.150288   
N29      N      0.719150000000     0.532740000000     0.746980000000    -0.153038   
N30      N      0.768030000000     0.446250000000     0.792530000000    -0.150654   
N31      N      0.941010000000     0.470110000000     0.998050000000    -0.151767   
N32      N      0.990780000000     0.534440000000     0.077000000000    -0.150335   
O1       O      0.791550000000     0.403440000000     0.873030000000    -0.251624   
O2       O      0.811560000000     0.287580000000     0.894990000000    -0.249205   
O3       O      0.927980000000     0.434760000000     0.909870000000    -0.245334   
O4       O      0.964540000000     0.323700000000     0.875430000000    -0.247978   
O5       O      0.910820000000     0.310700000000     0.808250000000    -0.247724   
O6       O      0.891530000000     0.398590000000     0.980300000000    -0.242968   
O7       O      0.846960000000     0.405530000000     0.805110000000    -0.246777   
O8       O      0.856380000000     0.303170000000     0.968830000000    -0.242766   
O9       O      0.150880000000     0.562020000000     0.272840000000    -0.247561   
O10      O      0.079450000000     0.677830000000     0.198630000000    -0.249673   
O11      O      0.036200000000     0.534990000000     0.160750000000    -0.248208   
O12      O      0.172750000000     0.596670000000     0.105070000000    -0.243145   
O13      O      0.190310000000     0.643790000000     0.175630000000    -0.247943   
O14      O      0.062330000000     0.584990000000     0.095370000000    -0.24637    
O15      O      0.146880000000     0.505740000000     0.207950000000    -0.248268   
O16      O      0.053400000000     0.623020000000     0.259080000000    -0.247973   
O17      O      0.438450000000     0.853370000000     0.998740000000    -0.245702   
O18      O      0.355000000000     0.879810000000     0.846390000000    -0.25248    
O19      O      0.329690000000     0.799060000000     0.020650000000    -0.248708   
O20      O      0.402930000000     0.749140000000     0.892440000000    -0.244443   
O21      O      0.451960000000     0.813730000000     0.880100000000    -0.247186   
O22      O      0.311880000000     0.755410000000     0.946900000000    -0.24172    
O23      O      0.380270000000     0.909700000000     0.981840000000    -0.251956   
O24      O      0.286180000000     0.863170000000     0.894830000000    -0.251178   
O25      O      0.536190000000     0.090950000000     0.075920000000    -0.250831   
O26      O      0.542310000000     0.136480000000     0.210360000000    -0.247172   
O27      O      0.636770000000     0.163180000000     0.048090000000    -0.248107   
O28      O      0.689380000000     0.074990000000     0.156270000000    -0.24633    
O29      O      0.640480000000     0.089440000000     0.228250000000    -0.244922   
O30      O      0.681670000000     0.179810000000     0.122250000000    -0.248904   
O31      O      0.592770000000     0.035520000000     0.101470000000    -0.25235    
O32      O      0.565840000000     0.201790000000     0.162990000000    -0.250579   
O33      O      0.409100000000     0.340960000000     0.320880000000    -0.248747   
O34      O      0.380010000000     0.278040000000     0.477570000000    -0.245756   
O35      O      0.286050000000     0.351580000000     0.362620000000    -0.251854   
O36      O      0.412720000000     0.435260000000     0.412170000000    -0.246589   
O37      O      0.457800000000     0.375390000000     0.449440000000    -0.251895   
O38      O      0.297530000000     0.413390000000     0.419360000000    -0.241724   
O39      O      0.378930000000     0.273620000000     0.359210000000    -0.244677   
O40      O      0.332590000000     0.338570000000     0.508990000000    -0.248654   
O41      O      0.699000000000     0.674780000000     0.624960000000    -0.246218   
O42      O      0.609510000000     0.538590000000     0.584590000000    -0.250732   
O43      O      0.587660000000     0.694960000000     0.683740000000    -0.252293   
O44      O      0.642050000000     0.575470000000     0.725110000000    -0.246428   
O45      O      0.701370000000     0.571080000000     0.661820000000    -0.244707   
O46      O      0.543350000000     0.626780000000     0.696300000000    -0.246789   
O47      O      0.643530000000     0.674990000000     0.557090000000    -0.248661   
O48      O      0.557540000000     0.598960000000     0.562220000000    -0.244314   
O49      O      0.837580000000     0.853570000000     0.498330000000    -0.248013   
O50      O      0.931940000000     0.952830000000     0.427920000000    -0.248315   
O51      O      0.821160000000     0.957600000000     0.393560000000    -0.245538   
O52      O      0.925560000000     0.850850000000     0.325660000000    -0.245467   
O53      O      0.894520000000     0.792480000000     0.378060000000    -0.251503   
O54      O      0.836940000000     0.913100000000     0.319650000000    -0.245947   
O55      O      0.787770000000     0.843920000000     0.426820000000    -0.249211   
O56      O      0.949430000000     0.884330000000     0.472010000000    -0.245936   
O57      O      0.124040000000     0.151890000000     0.752480000000    -0.247779   
O58      O      0.230010000000     0.063260000000     0.713800000000    -0.249019   
O59      O      0.188240000000     0.185770000000     0.650610000000    -0.251453   
O60      O      0.101340000000     0.087420000000     0.583690000000    -0.248262   
O61      O      0.125980000000     0.020530000000     0.627500000000    -0.25093    
O62      O      0.227210000000     0.123410000000     0.610750000000    -0.248293   
O63      O      0.064580000000     0.138750000000     0.690170000000    -0.247752   
O64      O      0.156500000000     0.041180000000     0.749650000000    -0.244003   
S1       S      0.052100000000     0.869720000000     0.511040000000     0.0213098  
S2       S      0.680540000000     0.829780000000     0.437690000000     0.0216582  
S3       S      0.303840000000     0.343550000000     0.621940000000     0.0239039  
S4       S      0.521800000000     0.598210000000     0.449250000000     0.0238603  
S5       S      0.796270000000     0.075600000000     0.340490000000     0.0193833  
S6       S      0.437600000000     0.344890000000     0.208650000000     0.0223259  
S7       S      0.147690000000     0.987430000000     0.847950000000     0.0260304  
S8       S      0.433470000000     0.651540000000     0.869280000000     0.0241916  
S9       S      0.514410000000     0.863540000000     0.080230000000     0.0241076  
S10      S      0.965650000000     0.833530000000     0.220230000000     0.0250539  
S11      S      0.237810000000     0.586580000000     0.013150000000     0.0262335  
S12      S      0.213880000000     0.473810000000     0.453720000000     0.0260601  
S13      S      0.068770000000     0.297520000000     0.872540000000     0.02633    
S14      S      0.857950000000     0.241470000000     0.061780000000     0.0251574  
S15      S      0.650200000000     0.533890000000     0.829950000000     0.0223729  
S16      S      0.948820000000     0.539210000000     0.920880000000     0.0199808  


