data_structure

_audit_creation_method RASPA-1.0
_audit_creation_date 2023-5-22
_audit_author_name 'Poobodin Mano'

_cell_length_a    23.9088
_cell_length_b    27.0291
_cell_length_c    24.4175
_cell_angle_alpha 90
_cell_angle_beta  90
_cell_angle_gamma 90
_cell_volume      15779.4

_symmetry_cell_setting          triclinic
_symmetry_space_group_name_Hall 'P 1'
_symmetry_space_group_name_H-M  'P 1'
_symmetry_Int_Tables_number     1

_symmetry_equiv_pos_as_xyz 'x,y,z'

loop_
_atom_site_label
_atom_site_type_symbol
_atom_site_fract_x
_atom_site_fract_y
_atom_site_fract_z
_atom_site_charge
C1       C      0.763460000000     0.395190000000     0.836230000000     0.342657   
C2       C      0.912970000000     0.282650000000     0.826900000000     0.342024   
C3       C      0.926280000000     0.418480000000     0.945150000000     0.340347   
C4       C      0.802240000000     0.282840000000     0.982690000000     0.343098   
C5       C      0.106020000000     0.671860000000     0.190470000000     0.340259   
C6       C      0.194980000000     0.516940000000     0.165660000000     0.337928   
C7       C      0.065520000000     0.554260000000     0.040700000000     0.341051   
C8       C      0.224190000000     0.663820000000     0.051450000000     0.339697   
C9       C      0.368700000000     0.768940000000     0.927150000000     0.341421   
C10      C      0.500780000000     0.894460000000     0.969800000000     0.338308   
C11      C      0.492360000000     0.801060000000     0.797000000000     0.339035   
C12      C      0.369430000000     0.934290000000     0.842890000000     0.340777   
C13      C      0.704240000000     0.157890000000     0.131080000000     0.339333   
C14      C      0.750030000000     0.023620000000     0.255560000000     0.338919   
C15      C      0.582950000000     0.120810000000     0.259540000000     0.341309   
C16      C      0.625220000000     0.992810000000     0.122050000000     0.340076   
C17      C      0.312950000000     0.387550000000     0.290030000000     0.340111   
C18      C      0.462660000000     0.274600000000     0.327980000000     0.34052    
C19      C      0.440140000000     0.438730000000     0.413980000000     0.34092    
C20      C      0.334280000000     0.292000000000     0.456350000000     0.340102   
C21      C      0.580960000000     0.542330000000     0.541460000000     0.338766   
C22      C      0.607430000000     0.686520000000     0.653380000000     0.340105   
C23      C      0.692530000000     0.527130000000     0.689320000000     0.342105   
C24      C      0.750160000000     0.639190000000     0.544840000000     0.340611   
C25      C      0.037580000000     0.807860000000     0.333150000000     0.339613   
C26      C      0.900080000000     0.925520000000     0.381980000000     0.339252   
C27      C      0.904750000000     0.754040000000     0.446310000000     0.34165    
C28      C      0.024560000000     0.888280000000     0.511550000000     0.34086    
C29      C      0.084370000000     0.179850000000     0.741230000000     0.339962   
C30      C      0.248820000000     0.081090000000     0.757810000000     0.340781   
C31      C      0.115760000000     0.038970000000     0.622270000000     0.342053   
C32      C      0.212490000000     0.191790000000     0.610070000000     0.342801   
C33      C      0.031820000000     0.991220000000     0.595310000000    -0.0150441  
C34      C      0.126620000000     0.972410000000     0.553580000000    -0.0212497  
C35      C      0.020120000000     0.935470000000     0.598010000000    -0.0148968  
C36      C      0.113310000000     0.917150000000     0.558720000000     0.00982493 
C37      C      0.146830000000     0.888030000000     0.519590000000     0.0751154  
C38      C      0.826040000000     0.697070000000     0.427230000000    -0.0125015  
C39      C      0.896720000000     0.674760000000     0.496840000000    -0.0186734  
C40      C      0.778230000000     0.690600000000     0.467730000000    -0.0149562  
C41      C      0.850960000000     0.662500000000     0.539310000000     0.00754592 
C42      C      0.867430000000     0.616210000000     0.567260000000     0.0739153  
C43      C      0.214260000000     0.232150000000     0.519070000000    -0.013176   
C44      C      0.277790000000     0.261430000000     0.593550000000    -0.019661   
C45      C      0.263600000000     0.229390000000     0.479570000000    -0.015422   
C46      C      0.327860000000     0.260250000000     0.553940000000     0.00820984 
C47      C      0.367970000000     0.298850000000     0.571000000000     0.0739535  
C48      C      0.564150000000     0.491400000000     0.458940000000    -0.015082   
C49      C      0.487650000000     0.504060000000     0.529440000000    -0.0215611  
C50      C      0.520230000000     0.496430000000     0.413630000000    -0.0140597  
C51      C      0.445490000000     0.509550000000     0.482350000000     0.0100355  
C52      C      0.388520000000     0.497600000000     0.501400000000     0.0747173  
C53      C      0.810800000000     0.971990000000     0.381810000000    -0.0128457  
C54      C      0.889020000000     0.998900000000     0.321950000000    -0.0191543  
C55      C      0.771420000000     0.968900000000     0.332800000000    -0.0156582  
C56      C      0.850530000000     0.998510000000     0.271290000000     0.00751411 
C57      C      0.868740000000     0.038960000000     0.234710000000     0.074085   
C58      C      0.480480000000     0.209510000000     0.258820000000    -0.0149021  
C59      C      0.551180000000     0.227090000000     0.333420000000    -0.0213193  
C60      C      0.487470000000     0.154020000000     0.269600000000    -0.0147207  
C61      C      0.556150000000     0.171160000000     0.343230000000     0.00974158 
C62      C      0.610260000000     0.158840000000     0.368860000000     0.0721099  
C63      C      0.355000000000     0.996500000000     0.770210000000    -0.015502   
C64      C      0.285200000000     0.987120000000     0.848170000000    -0.0214643  
C65      C      0.345690000000     0.052500000000     0.772230000000    -0.0138427  
C66      C      0.278570000000     0.043590000000     0.848550000000     0.00993315 
C67      C      0.224450000000     0.057980000000     0.872790000000     0.0717911  
C68      C      0.614020000000     0.759840000000     0.713820000000    -0.0123081  
C69      C      0.528700000000     0.746100000000     0.658340000000    -0.0185106  
C70      C      0.579900000000     0.763740000000     0.766310000000    -0.0158525  
C71      C      0.490920000000     0.753170000000     0.708950000000     0.00714343 
C72      C      0.440850000000     0.780880000000     0.691060000000     0.073548   
C73      C      0.628470000000     0.946400000000     0.034560000000    -0.012664   
C74      C      0.564640000000     0.919320000000     0.108820000000    -0.0190417  
C75      C      0.580490000000     0.947090000000     0.993380000000    -0.0158686  
C76      C      0.514830000000     0.916870000000     0.068810000000     0.00758325 
C77      C      0.479830000000     0.874230000000     0.085080000000     0.0742339  
C78      C      0.038590000000     0.737320000000     0.216370000000    -0.0149801  
C79      C      0.112280000000     0.707740000000     0.283470000000    -0.0212091  
C80      C      0.050120000000     0.790600000000     0.234700000000    -0.0147209  
C81      C      0.123170000000     0.761820000000     0.299080000000     0.00962738 
C82      C      0.148380000000     0.765130000000     0.354090000000     0.075796   
C83      C      0.240890000000     0.727250000000     0.980250000000    -0.0144803  
C84      C      0.320250000000     0.696340000000     0.039260000000    -0.021222   
C85      C      0.279040000000     0.723770000000     0.930130000000    -0.0144108  
C86      C      0.357320000000     0.693160000000     0.987990000000     0.00969532 
C87      C      0.416770000000     0.697000000000     0.003640000000     0.0746111  
C88      C      0.294840000000     0.413670000000     0.194460000000    -0.0124414  
C89      C      0.216260000000     0.406230000000     0.259870000000    -0.0185877  
C90      C      0.278000000000     0.466190000000     0.179080000000    -0.0156198  
C91      C      0.193700000000     0.457710000000     0.244040000000     0.0073123  
C92      C      0.132090000000     0.454030000000     0.240670000000     0.0729002  
C93      C      0.013600000000     0.189310000000     0.814700000000    -0.0151686  
C94      C      0.036330000000     0.260440000000     0.751650000000    -0.0213093  
C95      C      0.951150000000     0.199760000000     0.806450000000    -0.0141001  
C96      C      0.973560000000     0.268850000000     0.742830000000     0.0102238  
C97      C      0.963020000000     0.320330000000     0.725580000000     0.075751   
C98      C      0.689320000000     0.221370000000     0.059470000000    -0.0131053  
C99      C      0.773020000000     0.225700000000     0.119910000000    -0.0195079  
C100     C      0.726020000000     0.227030000000     0.008780000000    -0.0153004  
C101     C      0.811460000000     0.233520000000     0.070040000000     0.00795507 
C102     C      0.857810000000     0.266150000000     0.087300000000     0.0745758  
C103     C      0.734680000000     0.446000000000     0.710710000000    -0.015487   
C104     C      0.710640000000     0.506820000000     0.786520000000    -0.0213784  
C105     C      0.714720000000     0.403880000000     0.747780000000    -0.0136563  
C106     C      0.691370000000     0.462930000000     0.821670000000     0.0101586  
C107     C      0.694150000000     0.475290000000     0.880450000000     0.0721478  
C108     C      0.967370000000     0.530720000000     0.021000000000    -0.0125306  
C109     C      0.042570000000     0.511310000000     0.953890000000    -0.0193065  
C110     C      0.946600000000     0.477340000000     0.018950000000    -0.0163797  
C111     C      0.022190000000     0.457430000000     0.949400000000     0.00770069 
C112     C      0.032920000000     0.440500000000     0.892820000000     0.0738087  
Cd1      Cd     0.849970000000     0.346010000000     0.899190000000     0.513168   
Cd2      Cd     0.146910000000     0.601630000000     0.110980000000     0.511363   
Cd3      Cd     0.432680000000     0.850980000000     0.884150000000     0.512325   
Cd4      Cd     0.665070000000     0.072550000000     0.190920000000     0.511411   
Cd5      Cd     0.388710000000     0.349380000000     0.371770000000     0.511754   
Cd6      Cd     0.658170000000     0.598670000000     0.607730000000     0.510805   
Cd7      Cd     0.966160000000     0.843310000000     0.420170000000     0.510778   
Cd8      Cd     0.165040000000     0.119950000000     0.683410000000     0.510047   
H1       H      0.034160000000     0.921680000000     0.638680000000     0.0509189  
H2       H      0.011600000000     0.009410000000     0.631040000000     0.0556994  
H3       H      0.126950000000     0.905560000000     0.600370000000     0.0486194  
H4       H      0.172250000000     0.978290000000     0.559800000000     0.0604992  
H5       H      0.011970000000     0.006160000000     0.557580000000     0.0533523  
H6       H      0.116100000000     0.984900000000     0.511380000000     0.0584134  
H7       H      0.974290000000     0.929120000000     0.595090000000     0.0562662  
H8       H      0.765360000000     0.727760000000     0.482730000000     0.0555176  
H9       H      0.813840000000     0.724720000000     0.395710000000     0.0550705  
H10      H      0.850990000000     0.692380000000     0.570610000000     0.05294    
H11      H      0.935030000000     0.687510000000     0.518520000000     0.0603415  
H12      H      0.833170000000     0.661110000000     0.406200000000     0.0496397  
H13      H      0.908120000000     0.640570000000     0.473870000000     0.0535793  
H14      H      0.741970000000     0.674770000000     0.445150000000     0.0562659  
H15      H      0.280480000000     0.191050000000     0.480560000000     0.0522464  
H16      H      0.182900000000     0.203620000000     0.507560000000     0.0563802  
H17      H      0.348930000000     0.223880000000     0.559140000000     0.049227   
H18      H      0.292510000000     0.253530000000     0.635890000000     0.0605081  
H19      H      0.194270000000     0.269080000000     0.514610000000     0.0540189  
H20      H      0.259470000000     0.299320000000     0.593460000000     0.0574549  
H21      H      0.247770000000     0.236200000000     0.437450000000     0.0577055  
H22      H      0.517890000000     0.536070000000     0.401570000000     0.0509006  
H23      H      0.604290000000     0.507150000000     0.443970000000     0.0576011  
H24      H      0.445120000000     0.549360000000     0.470760000000     0.048391   
H25      H      0.475010000000     0.528560000000     0.563930000000     0.0616425  
H26      H      0.571010000000     0.451360000000     0.466930000000     0.056388   
H27      H      0.486660000000     0.465210000000     0.544520000000     0.0611857  
H28      H      0.534070000000     0.475180000000     0.377090000000     0.0572586  
H29      H      0.770550000000     0.929920000000     0.318240000000     0.0542425  
H30      H      0.797470000000     0.944860000000     0.413430000000     0.0559971  
H31      H      0.857560000000     0.963040000000     0.249280000000     0.0511431  
H32      H      0.932730000000     0.990590000000     0.309250000000     0.0595899  
H33      H      0.807280000000     0.009670000000     0.399800000000     0.052258   
H34      H      0.888780000000     0.036640000000     0.340280000000     0.0543537  
H35      H      0.728570000000     0.978150000000     0.347200000000     0.0589047  
H36      H      0.455980000000     0.142690000000     0.300700000000     0.0506361  
H37      H      0.436700000000     0.216720000000     0.245750000000     0.0563616  
H38      H      0.523270000000     0.161140000000     0.373530000000     0.0474214  
H39      H      0.557100000000     0.247150000000     0.372780000000     0.0604695  
H40      H      0.508440000000     0.219960000000     0.224310000000     0.0533985  
H41      H      0.585040000000     0.238880000000     0.304990000000     0.0573463  
H42      H      0.478460000000     0.133160000000     0.231390000000     0.056748   
H43      H      0.376800000000     0.068700000000     0.800990000000     0.0492396  
H44      H      0.399450000000     0.989320000000     0.759410000000     0.0570777  
H45      H      0.311570000000     0.058430000000     0.876190000000     0.0464857  
H46      H      0.281700000000     0.972950000000     0.890840000000     0.0602148  
H47      H      0.328620000000     0.980910000000     0.736920000000     0.0568684  
H48      H      0.250520000000     0.970580000000     0.823890000000     0.0589106  
H49      H      0.353770000000     0.068560000000     0.731080000000     0.0565739  
H50      H      0.581050000000     0.727320000000     0.787490000000     0.0568985  
H51      H      0.656470000000     0.745640000000     0.723700000000     0.0562286  
H52      H      0.476780000000     0.715970000000     0.722550000000     0.0526956  
H53      H      0.507940000000     0.720530000000     0.628960000000     0.0596304  
H54      H      0.618740000000     0.797620000000     0.696330000000     0.0496902  
H55      H      0.534060000000     0.782330000000     0.637200000000     0.0529994  
H56      H      0.600970000000     0.790980000000     0.793520000000     0.0578223  
H57      H      0.565040000000     0.985750000000     0.989670000000     0.0535629  
H58      H      0.660310000000     0.974270000000     0.022320000000     0.05545    
H59      H      0.489430000000     0.950920000000     0.074610000000     0.0513286  
H60      H      0.549070000000     0.928220000000     0.150630000000     0.059629   
H61      H      0.648500000000     0.909270000000     0.033100000000     0.0507975  
H62      H      0.585000000000     0.882290000000     0.110880000000     0.0540996  
H63      H      0.597650000000     0.936310000000     0.952770000000     0.0571812  
H64      H      0.082900000000     0.806370000000     0.207480000000     0.0507836  
H65      H      0.027420000000     0.737500000000     0.172170000000     0.056793   
H66      H      0.154960000000     0.776230000000     0.269860000000     0.0485909  
H67      H      0.152040000000     0.686480000000     0.286220000000     0.0617229  
H68      H      0.001800000000     0.723290000000     0.239500000000     0.0543893  
H69      H      0.082360000000     0.691420000000     0.313360000000     0.0589446  
H70      H      0.011660000000     0.813160000000     0.229260000000     0.0567523  
H71      H      0.273680000000     0.686430000000     0.911690000000     0.0521775  
H72      H      0.197200000000     0.719240000000     0.967450000000     0.056893   
H73      H      0.351340000000     0.655550000000     0.970440000000     0.0486239  
H74      H      0.332190000000     0.666490000000     0.068400000000     0.0613999  
H75      H      0.242200000000     0.765900000000     0.995820000000     0.054845   
H76      H      0.327860000000     0.732450000000     0.059880000000     0.0600012  
H77      H      0.265300000000     0.751350000000     0.899160000000     0.0584269  
H78      H      0.305560000000     0.492440000000     0.201480000000     0.0567424  
H79      H      0.340740000000     0.409350000000     0.188960000000     0.0561508  
H80      H      0.203770000000     0.483670000000     0.277950000000     0.0543792  
H81      H      0.204920000000     0.398180000000     0.303160000000     0.0605725  
H82      H      0.273660000000     0.387660000000     0.165880000000     0.0500066  
H83      H      0.195790000000     0.377510000000     0.233950000000     0.0535601  
H84      H      0.286450000000     0.471230000000     0.134610000000     0.05715    
H85      H      0.936100000000     0.176530000000     0.771850000000     0.0511748  
H86      H      0.019680000000     0.148930000000     0.820950000000     0.0594904  
H87      H      0.960740000000     0.244840000000     0.708010000000     0.0485131  
H88      H      0.059600000000     0.270690000000     0.713860000000     0.0616392  
H89      H      0.027430000000     0.208550000000     0.852600000000     0.0566824  
H90      H      0.050960000000     0.285070000000     0.785270000000     0.0612384  
H91      H      0.927920000000     0.188150000000     0.843720000000     0.0571318  
H92      H      0.735300000000     0.189500000000     0.992460000000     0.0542097  
H93      H      0.651700000000     0.199240000000     0.048720000000     0.0550591  
H94      H      0.829850000000     0.197040000000     0.059160000000     0.0531757  
H95      H      0.796550000000     0.206020000000     0.152650000000     0.0628728  
H96      H      0.675070000000     0.258780000000     0.072330000000     0.0508993  
H97      H      0.760480000000     0.262450000000     0.136530000000     0.0547008  
H98      H      0.701340000000     0.246920000000     0.977090000000     0.0571247  
H99      H      0.669350000000     0.397870000000     0.740130000000     0.0503497  
H100     H      0.724390000000     0.436480000000     0.667570000000     0.0584249  
H101     H      0.646420000000     0.456730000000     0.812030000000     0.0473312  
H102     H      0.683790000000     0.539470000000     0.795450000000     0.0608272  
H103     H      0.780960000000     0.448750000000     0.714030000000     0.06042    
H104     H      0.754300000000     0.516620000000     0.798030000000     0.0602231  
H105     H      0.736950000000     0.369250000000     0.736460000000     0.0580686  
H106     H      0.965580000000     0.456830000000     0.053780000000     0.0578241  
H107     H      0.958360000000     0.546470000000     0.062120000000     0.0578747  
H108     H      0.048480000000     0.434590000000     0.977190000000     0.0517335  
H109     H      0.088500000000     0.512720000000     0.946640000000     0.0598605  
H110     H      0.943560000000     0.552580000000     0.990230000000     0.0524226  
H111     H      0.022100000000     0.533770000000     0.921300000000     0.0553257  
H112     H      0.900590000000     0.477680000000     0.025520000000     0.0606462  
N1       N      0.051950000000     0.910240000000     0.554590000000    -0.150998   
N2       N      0.092570000000     0.001120000000     0.592830000000    -0.150358   
N3       N      0.178400000000     0.861590000000     0.483900000000    -0.0788548  
N4       N      0.793480000000     0.659650000000     0.515540000000    -0.149929   
N5       N      0.876550000000     0.711190000000     0.457150000000    -0.150764   
N6       N      0.882700000000     0.573760000000     0.592830000000    -0.085117   
N7       N      0.308460000000     0.264040000000     0.496030000000    -0.150314   
N8       N      0.234440000000     0.226480000000     0.575510000000    -0.150011   
N9       N      0.404650000000     0.334220000000     0.587260000000    -0.0858375  
N10      N      0.465420000000     0.480420000000     0.434670000000    -0.150848   
N11      N      0.544870000000     0.515110000000     0.510110000000    -0.14893    
N12      N      0.336170000000     0.487000000000     0.519350000000    -0.0830483  
N13      N      0.790220000000     0.000920000000     0.287100000000    -0.14934    
N14      N      0.868310000000     0.963940000000     0.363150000000    -0.150487   
N15      N      0.885880000000     0.076090000000     0.201300000000    -0.0854823  
N16      N      0.544090000000     0.144970000000     0.291150000000    -0.151614   
N17      N      0.496680000000     0.238300000000     0.307760000000    -0.150422   
N18      N      0.659860000000     0.147720000000     0.392870000000    -0.0864375  
N19      N      0.288850000000     0.062480000000     0.792490000000    -0.151605   
N20      N      0.338860000000     0.972860000000     0.822490000000    -0.14976    
N21      N      0.174840000000     0.071050000000     0.895550000000    -0.0854167  
N22      N      0.520740000000     0.777010000000     0.755840000000    -0.149492   
N23      N      0.584150000000     0.728470000000     0.674690000000    -0.150509   
N24      N      0.394970000000     0.806250000000     0.674320000000    -0.0860765  
N25      N      0.533200000000     0.915140000000     0.010380000000    -0.149423   
N26      N      0.606380000000     0.955070000000     0.089660000000    -0.150542   
N27      N      0.447880000000     0.835080000000     0.100240000000    -0.0858916  
N28      N      0.070640000000     0.790130000000     0.291580000000    -0.15076    
N29      N      0.087090000000     0.705180000000     0.228280000000    -0.14979    
N30      N      0.172130000000     0.767510000000     0.404470000000    -0.0785362  
N31      N      0.337800000000     0.730060000000     0.947130000000    -0.150629   
N32      N      0.260650000000     0.693710000000     0.023780000000    -0.149867   
N33      N      0.471330000000     0.700090000000     0.018520000000    -0.0835308  
N34      N      0.219060000000     0.477790000000     0.192780000000    -0.1494     
N35      N      0.276650000000     0.403290000000     0.250490000000    -0.149899   
N36      N      0.075580000000     0.450490000000     0.237630000000    -0.0868226  
N37      N      0.943040000000     0.252410000000     0.792600000000    -0.150915   
N38      N      0.046090000000     0.208590000000     0.767980000000    -0.149202   
N39      N      0.953720000000     0.367590000000     0.709230000000    -0.0821473  
N40      N      0.779580000000     0.251980000000     0.021610000000    -0.150279   
N41      N      0.722070000000     0.199130000000     0.103840000000    -0.15019    
N42      N      0.900330000000     0.295950000000     0.103620000000    -0.0856159  
N43      N      0.723230000000     0.418300000000     0.805300000000    -0.151443   
N44      N      0.709850000000     0.493650000000     0.727730000000    -0.149144   
N45      N      0.696310000000     0.487000000000     0.934440000000    -0.0848906  
N46      N      0.962740000000     0.452410000000     0.967310000000    -0.149188   
N47      N      0.027040000000     0.532300000000     0.007180000000    -0.150173   
N48      N      0.043140000000     0.425130000000     0.840870000000    -0.0841634  
O1       O      0.907840000000     0.328630000000     0.818690000000    -0.231707   
O2       O      0.851990000000     0.298580000000     0.985240000000    -0.239497   
O3       O      0.789180000000     0.357430000000     0.818890000000    -0.245924   
O4       O      0.940310000000     0.388940000000     0.907500000000    -0.238242   
O5       O      0.876440000000     0.414090000000     0.962020000000    -0.240646   
O6       O      0.778020000000     0.410350000000     0.883090000000    -0.239106   
O7       O      0.888830000000     0.266060000000     0.869290000000    -0.246836   
O8       O      0.774770000000     0.296470000000     0.941000000000    -0.24825    
O9       O      0.149800000000     0.536740000000     0.181510000000    -0.238839   
O10      O      0.172620000000     0.662330000000     0.039890000000    -0.247805   
O11      O      0.146950000000     0.643550000000     0.200230000000    -0.245845   
O12      O      0.051980000000     0.573340000000     0.086140000000    -0.243574   
O13      O      0.116740000000     0.556950000000     0.027970000000    -0.248108   
O14      O      0.083640000000     0.667470000000     0.143740000000    -0.244496   
O15      O      0.217710000000     0.536570000000     0.124120000000    -0.242972   
O16      O      0.239950000000     0.636250000000     0.090380000000    -0.244494   
O17      O      0.453580000000     0.875120000000     0.979260000000    -0.238552   
O18      O      0.413650000000     0.919270000000     0.819820000000    -0.247699   
O19      O      0.419260000000     0.776120000000     0.940160000000    -0.237309   
O20      O      0.517210000000     0.818410000000     0.838610000000    -0.242355   
O21      O      0.439830000000     0.806460000000     0.796520000000    -0.240176   
O22      O      0.347970000000     0.800170000000     0.894250000000    -0.242969   
O23      O      0.515930000000     0.894400000000     0.920080000000    -0.243725   
O24      O      0.354740000000     0.910970000000     0.885450000000    -0.24579    
O25      O      0.760970000000     0.044060000000     0.210180000000    -0.236604   
O26      O      0.662620000000     0.022650000000     0.106080000000    -0.2474     
O27      O      0.731500000000     0.139690000000     0.170670000000    -0.240512   
O28      O      0.633970000000     0.118020000000     0.272690000000    -0.240253   
O29      O      0.569980000000     0.100770000000     0.214440000000    -0.246831   
O30      O      0.659190000000     0.136010000000     0.118600000000    -0.247816   
O31      O      0.699170000000     0.024880000000     0.269990000000    -0.243363   
O32      O      0.606380000000     0.999890000000     0.169840000000    -0.246352   
O33      O      0.415860000000     0.284420000000     0.306480000000    -0.248209   
O34      O      0.316130000000     0.293600000000     0.407690000000    -0.24476    
O35      O      0.364740000000     0.382500000000     0.280750000000    -0.245679   
O36      O      0.461510000000     0.414240000000     0.375030000000    -0.246008   
O37      O      0.394710000000     0.421860000000     0.432760000000    -0.237263   
O38      O      0.296560000000     0.376220000000     0.337710000000    -0.242342   
O39      O      0.475840000000     0.300090000000     0.369500000000    -0.246448   
O40      O      0.377900000000     0.317130000000     0.465450000000    -0.237606   
O41      O      0.582150000000     0.660010000000     0.618520000000    -0.244332   
O42      O      0.757310000000     0.618620000000     0.590830000000    -0.240875   
O43      O      0.566790000000     0.560110000000     0.587460000000    -0.243432   
O44      O      0.671210000000     0.568290000000     0.702390000000    -0.245401   
O45      O      0.697540000000     0.519020000000     0.638530000000    -0.245897   
O46      O      0.630740000000     0.550830000000     0.526380000000    -0.243241   
O47      O      0.655710000000     0.672070000000     0.667210000000    -0.245517   
O48      O      0.700070000000     0.641000000000     0.528110000000    -0.247199   
O49      O      0.949880000000     0.918740000000     0.365950000000    -0.245026   
O50      O      0.972080000000     0.882060000000     0.511730000000    -0.248188   
O51      O      0.991740000000     0.829670000000     0.323650000000    -0.245258   
O52      O      0.888540000000     0.783980000000     0.409850000000    -0.248862   
O53      O      0.948950000000     0.765820000000     0.471610000000    -0.247052   
O54      O      0.050110000000     0.802730000000     0.383130000000    -0.234227   
O55      O      0.881200000000     0.894430000000     0.416100000000    -0.244972   
O56      O      0.049620000000     0.873760000000     0.468910000000    -0.235618   
O57      O      0.198240000000     0.086140000000     0.771660000000    -0.239861   
O58      O      0.228860000000     0.187630000000     0.659230000000    -0.242409   
O59      O      0.112340000000     0.196150000000     0.701160000000    -0.247787   
O60      O      0.086750000000     0.066740000000     0.652750000000    -0.249392   
O61      O      0.167470000000     0.048610000000     0.620270000000    -0.249433   
O62      O      0.093810000000     0.135440000000     0.754900000000    -0.237969   
O63      O      0.260340000000     0.093790000000     0.709260000000    -0.246317   
O64      O      0.174310000000     0.162280000000     0.594880000000    -0.246243   


