data_structure

_audit_creation_method RASPA-1.0
_audit_creation_date 2023-5-22
_audit_author_name 'Poobodin Mano'

_cell_length_a    24.2271
_cell_length_b    26.7001
_cell_length_c    26.2858
_cell_angle_alpha 90
_cell_angle_beta  90
_cell_angle_gamma 90
_cell_volume      17003.4

_symmetry_cell_setting          triclinic
_symmetry_space_group_name_Hall 'P 1'
_symmetry_space_group_name_H-M  'P 1'
_symmetry_Int_Tables_number     1

_symmetry_equiv_pos_as_xyz 'x,y,z'

loop_
_atom_site_label
_atom_site_type_symbol
_atom_site_fract_x
_atom_site_fract_y
_atom_site_fract_z
_atom_site_charge
C1       C      0.968690000000     0.416440000000     0.921700000000     0.363853   
C2       C      0.838400000000     0.416730000000     0.785150000000     0.362397   
C3       C      0.961390000000     0.293890000000     0.779410000000     0.339496   
C4       C      0.842530000000     0.293990000000     0.922830000000     0.336706   
C5       C      0.212110000000     0.529440000000     0.164770000000     0.364798   
C6       C      0.095910000000     0.548440000000     0.027020000000     0.338479   
C7       C      0.093430000000     0.662590000000     0.177050000000     0.363302   
C8       C      0.221830000000     0.676740000000     0.050660000000     0.367457   
C9       C      0.485890000000     0.918440000000     0.928530000000     0.363772   
C10      C      0.351020000000     0.787140000000     0.922610000000     0.34135    
C11      C      0.356820000000     0.927440000000     0.803330000000     0.366234   
C12      C      0.475940000000     0.785900000000     0.799590000000     0.367851   
C13      C      0.727760000000     0.188720000000     0.064520000000     0.36655    
C14      C      0.588990000000     0.057220000000     0.048400000000     0.343863   
C15      C      0.718350000000     0.048680000000     0.177200000000     0.341082   
C16      C      0.584670000000     0.178960000000     0.178590000000     0.362947   
C17      C      0.329610000000     0.419590000000     0.302230000000     0.34072    
C18      C      0.447960000000     0.275520000000     0.310340000000     0.338663   
C19      C      0.452210000000     0.418760000000     0.426330000000     0.338828   
C20      C      0.320650000000     0.285640000000     0.432310000000     0.36407    
C21      C      0.592130000000     0.679440000000     0.660400000000     0.341732   
C22      C      0.705830000000     0.653050000000     0.523470000000     0.36387    
C23      C      0.710330000000     0.548060000000     0.680690000000     0.33847    
C24      C      0.583270000000     0.525920000000     0.553850000000     0.366056   
C25      C      0.960290000000     0.791210000000     0.280130000000     0.341464   
C26      C      0.821060000000     0.908080000000     0.294060000000     0.366341   
C27      C      0.832710000000     0.784500000000     0.419730000000     0.338864   
C28      C      0.968880000000     0.910690000000     0.414070000000     0.366259   
C29      C      0.087720000000     0.157180000000     0.678840000000     0.36701    
C30      C      0.073670000000     0.026750000000     0.554370000000     0.340039   
C31      C      0.217210000000     0.143120000000     0.545450000000     0.341303   
C32      C      0.213190000000     0.021310000000     0.676940000000     0.34265    
C33      C      0.035640000000     0.943430000000     0.531980000000    -0.0203444  
C34      C      0.000730000000     0.020970000000     0.488590000000    -0.106655   
C35      C      0.040970000000     0.917470000000     0.480320000000    -0.00877641 
C36      C      0.006480000000     0.995120000000     0.436840000000     0.323395   
C37      C      0.827110000000     0.712070000000     0.478400000000    -0.0213874  
C38      C      0.743640000000     0.766100000000     0.461790000000    -0.109182   
C39      C      0.790960000000     0.665340000000     0.472890000000    -0.00833867 
C40      C      0.708570000000     0.718870000000     0.455600000000     0.324497   
C41      C      0.303570000000     0.190000000000     0.528400000000    -0.0191277  
C42      C      0.233290000000     0.178250000000     0.459470000000    -0.106009   
C43      C      0.306320000000     0.246000000000     0.516270000000    -0.00973076 
C44      C      0.235720000000     0.234270000000     0.447170000000     0.322597   
C45      C      0.541500000000     0.461360000000     0.441420000000    -0.0212522  
C46      C      0.458510000000     0.481880000000     0.495120000000    -0.107952   
C47      C      0.576920000000     0.458560000000     0.489520000000    -0.0078109  
C48      C      0.494440000000     0.479020000000     0.542940000000     0.324486   
C49      C      0.784830000000     0.978520000000     0.183010000000    -0.021842   
C50      C      0.752910000000     0.023550000000     0.261970000000    -0.108522   
C51      C      0.778850000000     0.928500000000     0.210890000000    -0.00703918 
C52      C      0.746770000000     0.973170000000     0.289120000000     0.325631   
C53      C      0.532250000000     0.224080000000     0.299380000000    -0.0205377  
C54      C      0.454410000000     0.217230000000     0.237170000000    -0.106524   
C55      C      0.573110000000     0.230880000000     0.255590000000    -0.00864527 
C56      C      0.494950000000     0.223240000000     0.192860000000     0.322674   
C57      C      0.229430000000     0.979380000000     0.759740000000    -0.0201991  
C58      C      0.293560000000     0.964690000000     0.686010000000    -0.107588   
C59      C      0.279270000000     0.987220000000     0.794700000000    -0.00884284 
C60      C      0.343060000000     0.973280000000     0.721110000000     0.324739   
C61      C      0.593690000000     0.746340000000     0.725800000000    -0.0207578  
C62      C      0.506360000000     0.726500000000     0.678910000000    -0.1079     
C63      C      0.562780000000     0.742940000000     0.776460000000    -0.00731061 
C64      C      0.475230000000     0.722580000000     0.729390000000     0.325647   
C65      C      0.509300000000     0.000470000000     0.035840000000    -0.0207117  
C66      C      0.565180000000     0.029770000000     0.961100000000    -0.10647    
C67      C      0.510580000000     0.947030000000     0.014990000000    -0.00829996 
C68      C      0.566290000000     0.976240000000     0.940090000000     0.322729   
C69      C      0.967720000000     0.719040000000     0.221230000000    -0.0205251  
C70      C      0.046360000000     0.779590000000     0.230600000000    -0.106798   
C71      C      0.007970000000     0.675240000000     0.226910000000    -0.00880282 
C72      C      0.086560000000     0.735700000000     0.236470000000     0.322564   
C73      C      0.260630000000     0.746990000000     0.939230000000    -0.0208624  
C74      C      0.345410000000     0.719700000000     0.986990000000    -0.107582   
C75      C      0.227770000000     0.746450000000     0.988930000000    -0.00793033 
C76      C      0.312390000000     0.719760000000     0.036620000000     0.32466    
C77      C      0.246770000000     0.470790000000     0.283700000000    -0.0206544  
C78      C      0.331260000000     0.477280000000     0.228520000000    -0.107016   
C79      C      0.210580000000     0.468980000000     0.236040000000    -0.00802592 
C80      C      0.294760000000     0.475400000000     0.181020000000     0.324314   
C81      C      0.964030000000     0.217930000000     0.725370000000    -0.0203949  
C82      C      0.041510000000     0.280010000000     0.722520000000    -0.105907   
C83      C      0.005560000000     0.175240000000     0.731300000000    -0.00832172 
C84      C      0.083520000000     0.237450000000     0.727810000000     0.322719   
C85      C      0.753270000000     0.273560000000     0.963390000000    -0.0225551  
C86      C      0.836800000000     0.218850000000     0.977750000000    -0.108005   
C87      C      0.739320000000     0.269580000000     0.019940000000    -0.0072411  
C88      C      0.821540000000     0.214950000000     0.034180000000     0.324114   
C89      C      0.797450000000     0.534270000000     0.728160000000    -0.0203363  
C90      C      0.713940000000     0.482070000000     0.746770000000    -0.107465   
C91      C      0.832550000000     0.486800000000     0.723930000000    -0.00911358 
C92      C      0.748490000000     0.434370000000     0.741960000000     0.323088   
C93      C      0.011240000000     0.534840000000     0.975850000000    -0.0204814  
C94      C      0.093530000000     0.479130000000     0.964390000000    -0.107478   
C95      C      0.973950000000     0.488770000000     0.980220000000    -0.00892006 
C96      C      0.056570000000     0.432830000000     0.968930000000     0.323287   
Cd1      Cd     0.904050000000     0.355580000000     0.852670000000     0.518827   
Cd2      Cd     0.155250000000     0.603890000000     0.104240000000     0.520178   
Cd3      Cd     0.417620000000     0.855820000000     0.864050000000     0.521754   
Cd4      Cd     0.655690000000     0.118040000000     0.115600000000     0.51894    
Cd5      Cd     0.386820000000     0.349490000000     0.367460000000     0.517849   
Cd6      Cd     0.648380000000     0.601720000000     0.604440000000     0.519124   
Cd7      Cd     0.896910000000     0.848090000000     0.353020000000     0.517878   
Cd8      Cd     0.147520000000     0.087570000000     0.614690000000     0.51707    
F1       F      0.966730000000     0.014110000000     0.404200000000    -0.407244   
F2       F      0.654550000000     0.729310000000     0.469270000000    -0.411246   
F3       F      0.225260000000     0.240730000000     0.395750000000    -0.411364   
F4       F      0.473210000000     0.511130000000     0.579440000000    -0.408408   
F5       F      0.755570000000     0.980030000000     0.340740000000    -0.406651   
F6       F      0.475410000000     0.196030000000     0.151730000000    -0.411369   
F7       F      0.387590000000     0.945860000000     0.703270000000    -0.405632   
F8       F      0.420870000000     0.736790000000     0.721600000000    -0.406462   
F9       F      0.568060000000     0.978500000000     0.887440000000    -0.410156   
F10      F      0.137630000000     0.749840000000     0.217570000000    -0.411421   
F11      F      0.334350000000     0.683980000000     0.069000000000    -0.401998   
F12      F      0.320080000000     0.502330000000     0.142470000000    -0.402245   
F13      F      0.131140000000     0.250680000000     0.701880000000    -0.41187    
F14      F      0.839760000000     0.169370000000     0.052980000000    -0.412744   
F15      F      0.726420000000     0.398140000000     0.773770000000    -0.412646   
F16      F      0.078980000000     0.394710000000     0.939720000000    -0.409283   
H1       H      0.957650000000     0.015740000000     0.502220000000     0.104707   
H2       H      0.994710000000     0.933640000000     0.548340000000     0.0602918  
H3       H      0.034040000000     0.876640000000     0.485460000000     0.06214    
H4       H      0.007890000000     0.061820000000     0.483730000000     0.109385   
H5       H      0.047800000000     0.004610000000     0.421120000000     0.0135213  
H6       H      0.067910000000     0.928690000000     0.558040000000     0.0630519  
H7       H      0.084030000000     0.922600000000     0.466620000000     0.0583731  
H8       H      0.739860000000     0.779270000000     0.501780000000     0.103855   
H9       H      0.830050000000     0.721500000000     0.519510000000     0.0597846  
H10      H      0.808090000000     0.634910000000     0.497040000000     0.0598677  
H11      H      0.726920000000     0.795930000000     0.436620000000     0.112588   
H12      H      0.708940000000     0.708360000000     0.414650000000     0.010105   
H13      H      0.869400000000     0.703310000000     0.464610000000     0.0616866  
H14      H      0.793090000000     0.652680000000     0.432620000000     0.0535648  
H15      H      0.262750000000     0.158390000000     0.434040000000     0.102416   
H16      H      0.336730000000     0.170780000000     0.506610000000     0.0620052  
H17      H      0.348620000000     0.259780000000     0.524750000000     0.0657427  
H18      H      0.191170000000     0.163980000000     0.451020000000     0.109028   
H19      H      0.202370000000     0.253260000000     0.468910000000     0.0147972  
H20      H      0.311950000000     0.184340000000     0.569570000000     0.0697978  
H21      H      0.277310000000     0.265880000000     0.542100000000     0.0652749  
H22      H      0.456440000000     0.521640000000     0.482660000000     0.105668   
H23      H      0.545300000000     0.499720000000     0.425300000000     0.0632818  
H24      H      0.619930000000     0.469480000000     0.479890000000     0.0611844  
H25      H      0.415910000000     0.469650000000     0.504770000000     0.10904    
H26      H      0.491850000000     0.440160000000     0.558000000000     0.0126791  
H27      H      0.558020000000     0.434560000000     0.412860000000     0.0635623  
H28      H      0.577700000000     0.418960000000     0.502620000000     0.0565047  
H29      H      0.794160000000     0.039290000000     0.271390000000     0.112133   
H30      H      0.828550000000     0.990840000000     0.186060000000     0.0696338  
H31      H      0.809490000000     0.901590000000     0.195310000000     0.0613956  
H32      H      0.721160000000     0.049820000000     0.276850000000     0.109211   
H33      H      0.703550000000     0.960160000000     0.283770000000     0.0110565  
H34      H      0.775480000000     0.972720000000     0.142020000000     0.0667096  
H35      H      0.736990000000     0.913370000000     0.202770000000     0.0549201  
H36      H      0.448600000000     0.176530000000     0.244400000000     0.104076   
H37      H      0.530560000000     0.183590000000     0.309150000000     0.0624578  
H38      H      0.613560000000     0.214890000000     0.267170000000     0.0639834  
H39      H      0.413740000000     0.233110000000     0.226070000000     0.110568   
H40      H      0.495730000000     0.263470000000     0.181930000000     0.0134454  
H41      H      0.547640000000     0.244650000000     0.333290000000     0.0642943  
H42      H      0.579060000000     0.271700000000     0.249220000000     0.0569175  
H43      H      0.285160000000     0.923780000000     0.684280000000     0.106057   
H44      H      0.216530000000     0.939500000000     0.762590000000     0.0613318  
H45      H      0.268290000000     0.974900000000     0.833800000000     0.0633392  
H46      H      0.304310000000     0.977470000000     0.647000000000     0.109309   
H47      H      0.354120000000     0.013670000000     0.719200000000     0.0147464  
H48      H      0.194620000000     0.002880000000     0.773490000000     0.0643199  
H49      H      0.288350000000     0.028020000000     0.796210000000     0.060226   
H50      H      0.501950000000     0.765420000000     0.664380000000     0.113403   
H51      H      0.593650000000     0.786150000000     0.713360000000     0.0689601  
H52      H      0.582190000000     0.769160000000     0.804000000000     0.0658537  
H53      H      0.487120000000     0.700830000000     0.650720000000     0.118501   
H54      H      0.475530000000     0.682650000000     0.741410000000     0.0154373  
H55      H      0.637310000000     0.734770000000     0.731620000000     0.0644313  
H56      H      0.567910000000     0.704330000000     0.791620000000     0.0570452  
H57      H      0.530150000000     0.050070000000     0.943130000000     0.106583   
H58      H      0.470620000000     0.018690000000     0.022560000000     0.0673423  
H59      H      0.472160000000     0.927460000000     0.026770000000     0.0641656  
H60      H      0.603940000000     0.049170000000     0.949970000000     0.108313   
H61      H      0.604840000000     0.957960000000     0.953600000000     0.0104672  
H62      H      0.507990000000     0.998980000000     0.078090000000     0.0683688  
H63      H      0.545920000000     0.927060000000     0.032850000000     0.0562423  
H64      H      0.045560000000     0.790840000000     0.189870000000     0.101246   
H65      H      0.962220000000     0.726710000000     0.179950000000     0.0588378  
H66      H      0.992090000000     0.642800000000     0.204820000000     0.0599824  
H67      H      0.061850000000     0.811960000000     0.253040000000     0.107809   
H68      H      0.091230000000     0.727810000000     0.277790000000     0.0110108  
H69      H      0.926930000000     0.707960000000     0.236970000000     0.0612893  
H70      H      0.008950000000     0.664130000000     0.267670000000     0.0543935  
H71      H      0.345110000000     0.681050000000     0.971200000000     0.107791   
H72      H      0.254540000000     0.710360000000     0.919890000000     0.064355   
H73      H      0.184080000000     0.736990000000     0.980300000000     0.0619412  
H74      H      0.388960000000     0.729760000000     0.995510000000     0.109271   
H75      H      0.317510000000     0.757090000000     0.054790000000     0.015247   
H76      H      0.243730000000     0.776670000000     0.913980000000     0.064885   
H77      H      0.228450000000     0.784920000000     0.005160000000     0.0590701  
H78      H      0.339210000000     0.517220000000     0.238020000000     0.107649   
H79      H      0.248850000000     0.510290000000     0.297000000000     0.0640907  
H80      H      0.169840000000     0.485970000000     0.244980000000     0.0631585  
H81      H      0.371620000000     0.459440000000     0.219750000000     0.109565   
H82      H      0.291770000000     0.435650000000     0.168660000000     0.0156387  
H83      H      0.226880000000     0.448270000000     0.314180000000     0.0686827  
H84      H      0.203450000000     0.429010000000     0.226090000000     0.0613124  
H85      H      0.035690000000     0.287940000000     0.681330000000     0.101719   
H86      H      0.954520000000     0.222260000000     0.684210000000     0.0616128  
H87      H      0.988140000000     0.141010000000     0.713370000000     0.0625149  
H88      H      0.058480000000     0.314370000000     0.740580000000     0.111407   
H89      H      0.093970000000     0.233550000000     0.768820000000     0.0167624  
H90      H      0.925130000000     0.207710000000     0.745240000000     0.0660473  
H91      H      0.010740000000     0.167460000000     0.772580000000     0.0589246  
H92      H      0.819900000000     0.185520000000     0.957700000000     0.104624   
H93      H      0.729140000000     0.244680000000     0.942560000000     0.0687239  
H94      H      0.693930000000     0.273130000000     0.024890000000     0.0655661  
H95      H      0.882490000000     0.217830000000     0.974020000000     0.108357   
H96      H      0.843740000000     0.245230000000     0.054830000000     0.0107113  
H97      H      0.739910000000     0.310900000000     0.949310000000     0.0721932  
H98      H      0.759030000000     0.301630000000     0.039960000000     0.0555974  
H99      H      0.713100000000     0.493330000000     0.787510000000     0.101385   
H100     H      0.800460000000     0.548370000000     0.767870000000     0.058047   
H101     H      0.875230000000     0.495490000000     0.736690000000     0.060624   
H102     H      0.670830000000     0.473950000000     0.734870000000     0.109509   
H103     H      0.745070000000     0.420740000000     0.702100000000     0.0104245  
H104     H      0.814650000000     0.563470000000     0.702530000000     0.0615913  
H105     H      0.834660000000     0.475920000000     0.683140000000     0.0550836  
H106     H      0.097850000000     0.488580000000     0.923370000000     0.103914   
H107     H      0.011360000000     0.547240000000     0.935460000000     0.0588805  
H108     H      0.932500000000     0.498330000000     0.964920000000     0.0598354  
H109     H      0.135280000000     0.470010000000     0.979300000000     0.111799   
H110     H      0.056820000000     0.420570000000     0.009370000000     0.0121966  
H111     H      0.993670000000     0.565690000000     0.999170000000     0.0613963  
H112     H      0.968950000000     0.479710000000     0.021260000000     0.0549401  
N1       N      0.002860000000     0.940150000000     0.443080000000    -0.177499   
N2       N      0.038740000000     0.998150000000     0.525650000000    -0.138073   
N3       N      0.733270000000     0.677710000000     0.485440000000    -0.179451   
N4       N      0.802100000000     0.754750000000     0.451250000000    -0.137854   
N5       N      0.289480000000     0.255420000000     0.463150000000    -0.177183   
N6       N      0.249800000000     0.169630000000     0.512640000000    -0.136888   
N7       N      0.552550000000     0.489930000000     0.529820000000    -0.17787    
N8       N      0.483130000000     0.451870000000     0.453900000000    -0.137505   
N9       N      0.784510000000     0.936000000000     0.266190000000    -0.177229   
N10      N      0.749230000000     0.016920000000     0.206410000000    -0.135713   
N11      N      0.551330000000     0.208200000000     0.208450000000    -0.177155   
N12      N      0.477040000000     0.240650000000     0.283330000000    -0.137554   
N13      N      0.327820000000     0.960810000000     0.774110000000    -0.176662   
N14      N      0.244500000000     0.990250000000     0.706550000000    -0.137964   
N15      N      0.503390000000     0.752760000000     0.768900000000    -0.176616   
N16      N      0.565280000000     0.715920000000     0.687150000000    -0.135203   
N17      N      0.518500000000     0.947410000000     0.959350000000    -0.177606   
N18      N      0.556780000000     0.029180000000     0.016580000000    -0.136676   
N19      N      0.063960000000     0.690570000000     0.211280000000    -0.17838    
N20      N      0.990420000000     0.764100000000     0.245850000000    -0.138822   
N21      N      0.253160000000     0.711750000000     0.025770000000    -0.175873   
N22      N      0.319910000000     0.753720000000     0.949650000000    -0.136777   
N23      N      0.238710000000     0.493790000000     0.193140000000    -0.176357   
N24      N      0.303050000000     0.453460000000     0.271860000000    -0.136679   
N25      N      0.059570000000     0.189610000000     0.709800000000    -0.178255   
N26      N      0.988160000000     0.264890000000     0.744400000000    -0.137209   
N27      N      0.761530000000     0.222460000000     0.040620000000    -0.178841   
N28      N      0.812580000000     0.264290000000     0.954970000000    -0.135847   
N29      N      0.807190000000     0.445400000000     0.752920000000    -0.178679   
N30      N      0.739390000000     0.522520000000     0.716890000000    -0.13869    
N31      N      0.999190000000     0.445360000000     0.954330000000    -0.178345   
N32      N      0.067960000000     0.521800000000     0.990850000000    -0.13812    
O1       O      0.818900000000     0.379050000000     0.808060000000    -0.193927   
O2       O      0.892520000000     0.284800000000     0.912250000000    -0.233077   
O3       O      0.919390000000     0.427320000000     0.910240000000    -0.248921   
O4       O      0.915060000000     0.281500000000     0.797690000000    -0.237191   
O5       O      0.981380000000     0.334780000000     0.795320000000    -0.228075   
O6       O      0.987760000000     0.377180000000     0.901300000000    -0.19351    
O7       O      0.888790000000     0.426160000000     0.793590000000    -0.246861   
O8       O      0.821580000000     0.331910000000     0.901350000000    -0.226266   
O9       O      0.144820000000     0.537580000000     0.039710000000    -0.234585   
O10      O      0.171120000000     0.670570000000     0.040810000000    -0.245727   
O11      O      0.163360000000     0.543340000000     0.174860000000    -0.246179   
O12      O      0.073040000000     0.624350000000     0.155630000000    -0.243887   
O13      O      0.142580000000     0.673200000000     0.164890000000    -0.195282   
O14      O      0.234390000000     0.550310000000     0.126770000000    -0.179458   
O15      O      0.074400000000     0.585290000000     0.049890000000    -0.239273   
O16      O      0.241470000000     0.648900000000     0.085130000000    -0.177901   
O17      O      0.402680000000     0.790790000000     0.928870000000    -0.236791   
O18      O      0.424670000000     0.793710000000     0.795490000000    -0.190987   
O19      O      0.445230000000     0.894000000000     0.945760000000    -0.244951   
O20      O      0.343210000000     0.917570000000     0.848760000000    -0.242725   
O21      O      0.398640000000     0.904410000000     0.786640000000    -0.185691   
O22      O      0.494730000000     0.913930000000     0.881330000000    -0.191243   
O23      O      0.330000000000     0.815810000000     0.889480000000    -0.234163   
O24      O      0.500410000000     0.810580000000     0.834010000000    -0.236323   
O25      O      0.627530000000     0.084810000000     0.031880000000    -0.235367   
O26      O      0.633960000000     0.168990000000     0.191060000000    -0.239284   
O27      O      0.745730000000     0.148610000000     0.083900000000    -0.197526   
O28      O      0.717150000000     0.045450000000     0.129160000000    -0.233534   
O29      O      0.689920000000     0.083560000000     0.196580000000    -0.23233    
O30      O      0.676370000000     0.195890000000     0.068620000000    -0.243849   
O31      O      0.581680000000     0.057520000000     0.096090000000    -0.23459    
O32      O      0.568460000000     0.160580000000     0.136800000000    -0.193855   
O33      O      0.400660000000     0.290320000000     0.296470000000    -0.23182    
O34      O      0.366200000000     0.303880000000     0.446880000000    -0.245332   
O35      O      0.378630000000     0.405700000000     0.293430000000    -0.237952   
O36      O      0.472480000000     0.393900000000     0.389820000000    -0.237796   
O37      O      0.401580000000     0.411350000000     0.435660000000    -0.236676   
O38      O      0.306850000000     0.400640000000     0.341060000000    -0.231056   
O39      O      0.466830000000     0.294980000000     0.350650000000    -0.238364   
O40      O      0.305760000000     0.297300000000     0.387730000000    -0.193904   
O41      O      0.656680000000     0.663610000000     0.535600000000    -0.198388   
O42      O      0.633200000000     0.534000000000     0.542250000000    -0.248126   
O43      O      0.567800000000     0.653150000000     0.627210000000    -0.217943   
O44      O      0.660240000000     0.538320000000     0.671320000000    -0.237638   
O45      O      0.731910000000     0.582740000000     0.654580000000    -0.23875    
O46      O      0.642690000000     0.669840000000     0.667540000000    -0.241951   
O47      O      0.728380000000     0.618390000000     0.548920000000    -0.244907   
O48      O      0.563710000000     0.553080000000     0.588920000000    -0.188131   
O49      O      0.852100000000     0.875660000000     0.273550000000    -0.245305   
O50      O      0.965290000000     0.863910000000     0.420950000000    -0.246233   
O51      O      0.912370000000     0.777930000000     0.293820000000    -0.241864   
O52      O      0.812130000000     0.822050000000     0.397440000000    -0.231643   
O53      O      0.883280000000     0.776250000000     0.411210000000    -0.240629   
O54      O      0.978700000000     0.831040000000     0.300040000000    -0.23787    
O55      O      0.825740000000     0.912780000000     0.341780000000    -0.18248    
O56      O      0.939350000000     0.928300000000     0.378690000000    -0.189967   
O57      O      0.107250000000     0.007510000000     0.585690000000    -0.241986   
O58      O      0.224800000000     0.029630000000     0.630720000000    -0.236145   
O59      O      0.067550000000     0.115520000000     0.665480000000    -0.247457   
O60      O      0.171240000000     0.125040000000     0.531880000000    -0.234607   
O61      O      0.231140000000     0.135290000000     0.591170000000    -0.229306   
O62      O      0.135560000000     0.166590000000     0.662230000000    -0.198771   
O63      O      0.074280000000     0.074050000000     0.551200000000    -0.232511   
O64      O      0.170940000000     0.043450000000     0.694150000000    -0.240671   


