data_structure

_audit_creation_method RASPA-1.0
_audit_creation_date 2023-5-22
_audit_author_name 'Poobodin Mano'

_cell_length_a    22.8007
_cell_length_b    25.4662
_cell_length_c    24.2619
_cell_angle_alpha 90
_cell_angle_beta  90
_cell_angle_gamma 90
_cell_volume      14087.6

_symmetry_cell_setting          triclinic
_symmetry_space_group_name_Hall 'P 1'
_symmetry_space_group_name_H-M  'P 1'
_symmetry_Int_Tables_number     1

_symmetry_equiv_pos_as_xyz 'x,y,z'

loop_
_atom_site_label
_atom_site_type_symbol
_atom_site_fract_x
_atom_site_fract_y
_atom_site_fract_z
_atom_site_charge
Br1      Br     0.970150000000     0.042140000000     0.337960000000    -0.186887   
Br2      Br     0.934170000000     0.645000000000     0.591150000000    -0.187949   
Br3      Br     0.345070000000     0.134880000000     0.585770000000    -0.178621   
Br4      Br     0.454810000000     0.436290000000     0.661630000000    -0.18565    
Br5      Br     0.596500000000     0.987120000000     0.276190000000    -0.192528   
Br6      Br     0.707250000000     0.284880000000     0.261860000000    -0.18755    
Br7      Br     0.314200000000     0.865540000000     0.669770000000    -0.166273   
Br8      Br     0.485320000000     0.835230000000     0.672830000000    -0.167083   
Br9      Br     0.457350000000     0.080350000000     0.860350000000    -0.186419   
Br10     Br     0.037150000000     0.693060000000     0.101370000000    -0.180358   
Br11     Br     0.209160000000     0.660220000000     0.015990000000    -0.146564   
Br12     Br     0.310500000000     0.559920000000     0.487170000000    -0.182796   
Br13     Br     0.159420000000     0.186800000000     0.767530000000    -0.157489   
Br14     Br     0.862030000000     0.128380000000     0.079970000000    -0.185886   
Br15     Br     0.025380000000     0.570340000000     0.851110000000    -0.176111   
Br16     Br     0.019840000000     0.376830000000     0.157920000000    -0.189361   
C1       C      0.903330000000     0.302760000000     0.970430000000     0.34217    
C2       C      0.061170000000     0.407440000000     0.033120000000     0.348451   
C3       C      0.031680000000     0.341940000000     0.842310000000     0.341549   
C4       C      0.938710000000     0.490230000000     0.917830000000     0.350604   
C5       C      0.192800000000     0.513290000000     0.160150000000     0.344262   
C6       C      0.297030000000     0.617030000000     0.279260000000     0.339841   
C7       C      0.302260000000     0.644660000000     0.077380000000     0.346366   
C8       C      0.155620000000     0.706690000000     0.175320000000     0.353115   
C9       C      0.501670000000     0.836560000000     0.804110000000     0.347637   
C10      C      0.371690000000     0.790410000000     0.935790000000     0.341006   
C11      C      0.434370000000     0.972300000000     0.927350000000     0.349636   
C12      C      0.311840000000     0.911880000000     0.793440000000     0.347519   
C13      C      0.735450000000     0.183600000000     0.070810000000     0.348888   
C14      C      0.603660000000     0.218720000000     0.204330000000     0.350248   
C15      C      0.546290000000     0.103690000000     0.059480000000     0.33928    
C16      C      0.677530000000     0.036580000000     0.180460000000     0.350115   
C17      C      0.405750000000     0.496360000000     0.411830000000     0.348427   
C18      C      0.376920000000     0.310810000000     0.476370000000     0.342572   
C19      C      0.513880000000     0.357980000000     0.350870000000     0.340621   
C20      C      0.521180000000     0.423780000000     0.544060000000     0.346079   
C21      C      0.806630000000     0.587620000000     0.777850000000     0.336553   
C22      C      0.668650000000     0.717680000000     0.712820000000     0.342313   
C23      C      0.793010000000     0.649120000000     0.589410000000     0.347001   
C24      C      0.660990000000     0.528200000000     0.673240000000     0.342345   
C25      C      0.797900000000     0.886620000000     0.284780000000     0.342187   
C26      C      0.987550000000     0.805620000000     0.279040000000     0.339019   
C27      C      0.930620000000     0.940640000000     0.408610000000     0.347146   
C28      C      0.876030000000     0.756820000000     0.417470000000     0.342529   
C29      C      0.071330000000     0.192170000000     0.698180000000     0.348032   
C30      C      0.163770000000     0.022100000000     0.669110000000     0.343146   
C31      C      0.035630000000     0.079670000000     0.542720000000     0.340916   
C32      C      0.213730000000     0.179590000000     0.570420000000     0.348456   
C33      C      0.938910000000     0.039520000000     0.523120000000    -0.0143288  
C34      C      0.000110000000     0.072290000000     0.446510000000    -0.0453114  
C35      C      0.932940000000     0.985410000000     0.497120000000    -0.0116453  
C36      C      0.991000000000     0.021340000000     0.413270000000     0.10841    
C37      C      0.820440000000     0.675700000000     0.438920000000    -0.0140139  
C38      C      0.911130000000     0.696110000000     0.490060000000    -0.0456088  
C39      C      0.785110000000     0.669120000000     0.491790000000    -0.0120088  
C40      C      0.881080000000     0.687670000000     0.546070000000     0.109115   
C41      C      0.281140000000     0.266450000000     0.466320000000    -0.0136074  
C42      C      0.362230000000     0.222590000000     0.517110000000    -0.0449241  
C43      C      0.238630000000     0.255070000000     0.513070000000    -0.0136178  
C44      C      0.319730000000     0.205330000000     0.563170000000     0.108133   
C45      C      0.650840000000     0.436890000000     0.639330000000    -0.0133797  
C46      C      0.566750000000     0.480500000000     0.683480000000    -0.0444711  
C47      C      0.618090000000     0.428360000000     0.585430000000    -0.0112352  
C48      C      0.526530000000     0.469220000000     0.633790000000     0.108514   
C49      C      0.752410000000     0.905870000000     0.194280000000    -0.0124496  
C50      C      0.696430000000     0.921470000000     0.279770000000    -0.0442502  
C51      C      0.744020000000     0.962170000000     0.174750000000    -0.0136181  
C52      C      0.680450000000     0.977780000000     0.261850000000     0.108452   
C53      C      0.510820000000     0.329060000000     0.253610000000    -0.0139949  
C54      C      0.606070000000     0.335220000000     0.302250000000    -0.0448728  
C55      C      0.522510000000     0.272430000000     0.237210000000    -0.0131011  
C56      C      0.624160000000     0.280020000000     0.282370000000     0.10777    
C57      C      0.163740000000     0.957940000000     0.745880000000    -0.0125815  
C58      C      0.223760000000     0.941120000000     0.663150000000    -0.0431498  
C59      C      0.216360000000     0.953570000000     0.784210000000    -0.0121198  
C60      C      0.278870000000     0.930300000000     0.698140000000     0.107062   
C61      C      0.656400000000     0.799720000000     0.766670000000    -0.0140635  
C62      C      0.593030000000     0.782580000000     0.686190000000    -0.0447944  
C63      C      0.603690000000     0.808680000000     0.804240000000    -0.0119954  
C64      C      0.536850000000     0.792500000000     0.719460000000     0.107504   
C65      C      0.446650000000     0.067140000000     0.045790000000    -0.0144302  
C66      C      0.500280000000     0.104850000000     0.966950000000    -0.0453309  
C67      C      0.437930000000     0.014650000000     0.017000000000    -0.0106622  
C68      C      0.488600000000     0.056050000000     0.931110000000     0.10859    
C69      C      0.093220000000     0.795970000000     0.259840000000    -0.0175963  
C70      C      0.016540000000     0.742600000000     0.206870000000    -0.0510365  
C71      C      0.131380000000     0.795710000000     0.207770000000    -0.0121377  
C72      C      0.056350000000     0.746520000000     0.156390000000     0.113547   
C73      C      0.396930000000     0.732620000000     0.013660000000    -0.0174816  
C74      C      0.293230000000     0.735030000000     0.974500000000    -0.0463669  
C75      C      0.390180000000     0.673830000000     0.024550000000    -0.00791313 
C76      C      0.286920000000     0.676300000000     0.987150000000     0.102263   
C77      C      0.389120000000     0.623420000000     0.333100000000    -0.0143835  
C78      C      0.296110000000     0.605780000000     0.380830000000    -0.0455255  
C79      C      0.416750000000     0.571790000000     0.351270000000    -0.0095172  
C80      C      0.320280000000     0.555180000000     0.407260000000     0.108833   
C81      C      0.018270000000     0.317410000000     0.744290000000    -0.0173557  
C82      C      0.107210000000     0.287460000000     0.796050000000    -0.0468273  
C83      C      0.001200000000     0.260550000000     0.731180000000    -0.00833381 
C84      C      0.091410000000     0.230010000000     0.784870000000     0.103235   
C85      C      0.807110000000     0.259500000000     0.958440000000    -0.013475   
C86      C      0.885680000000     0.215210000000     0.011630000000    -0.0445579  
C87      C      0.763090000000     0.251000000000     0.004620000000    -0.0131544  
C88      C      0.842360000000     0.200390000000     0.057870000000     0.108551   
C89      C      0.816300000000     0.545610000000     0.868860000000    -0.0175445  
C90      C      0.906550000000     0.566420000000     0.809400000000    -0.0521751  
C91      C      0.855410000000     0.551680000000     0.919950000000    -0.0121899  
C92      C      0.940670000000     0.574250000000     0.863030000000     0.114038   
C93      C      0.200030000000     0.426170000000     0.115400000000    -0.0120669  
C94      C      0.116650000000     0.445510000000     0.176330000000    -0.0436711  
C95      C      0.161670000000     0.419520000000     0.064510000000    -0.0108132  
C96      C      0.071960000000     0.432080000000     0.130710000000     0.108971   
Cd1      Cd     0.983420000000     0.386390000000     0.941830000000     0.516899   
Cd2      Cd     0.236220000000     0.618990000000     0.174680000000     0.514636   
Cd3      Cd     0.404670000000     0.878130000000     0.866700000000     0.517653   
Cd4      Cd     0.640800000000     0.134940000000     0.131420000000     0.518322   
Cd5      Cd     0.453770000000     0.396900000000     0.447180000000     0.516137   
Cd6      Cd     0.731020000000     0.621400000000     0.689140000000     0.513771   
Cd7      Cd     0.896190000000     0.847640000000     0.348380000000     0.51461    
Cd8      Cd     0.121080000000     0.118430000000     0.620820000000     0.515863   
H1       H      0.965930000000     0.101310000000     0.434500000000     0.0768824  
H2       H      0.901940000000     0.064360000000     0.508420000000     0.0565323  
H3       H      0.887440000000     0.971210000000     0.504440000000     0.0601175  
H4       H      0.043290000000     0.089620000000     0.435400000000     0.0778021  
H5       H      0.033850000000     0.000620000000     0.410640000000     0.0459132  
H6       H      0.935180000000     0.035890000000     0.568650000000     0.0594765  
H7       H      0.962860000000     0.957910000000     0.519000000000     0.0582821  
H8       H      0.930970000000     0.658400000000     0.476270000000     0.0747446  
H9       H      0.838850000000     0.636750000000     0.427400000000     0.0545249  
H10      H      0.755880000000     0.634440000000     0.486880000000     0.0594268  
H11      H      0.947510000000     0.724800000000     0.495080000000     0.0770274  
H12      H      0.877080000000     0.726460000000     0.566810000000     0.0449632  
H13      H      0.790770000000     0.688480000000     0.405120000000     0.0588413  
H14      H      0.756070000000     0.703940000000     0.496560000000     0.0578854  
H15      H      0.365890000000     0.190320000000     0.486380000000     0.0762581  
H16      H      0.278510000000     0.233740000000     0.436030000000     0.0567169  
H17      H      0.194230000000     0.250040000000     0.494840000000     0.0623396  
H18      H      0.406540000000     0.228680000000     0.535190000000     0.0807579  
H19      H      0.326430000000     0.231770000000     0.599080000000     0.0484591  
H20      H      0.267390000000     0.303130000000     0.445080000000     0.0617768  
H21      H      0.236850000000     0.290050000000     0.540460000000     0.060496   
H22      H      0.563110000000     0.447700000000     0.713600000000     0.0734597  
H23      H      0.642990000000     0.402260000000     0.666310000000     0.0535712  
H24      H      0.627460000000     0.387900000000     0.570500000000     0.0607929  
H25      H      0.551510000000     0.516690000000     0.704740000000     0.0764313  
H26      H      0.513150000000     0.507520000000     0.615680000000     0.0497641  
H27      H      0.698740000000     0.439270000000     0.631110000000     0.0588058  
H28      H      0.636290000000     0.455750000000     0.554040000000     0.0608266  
H29      H      0.661330000000     0.894130000000     0.265880000000     0.0732008  
H30      H      0.715460000000     0.881860000000     0.178100000000     0.0530825  
H31      H      0.736170000000     0.961400000000     0.129480000000     0.0625316  
H32      H      0.697890000000     0.919620000000     0.325540000000     0.0772673  
H33      H      0.704090000000     0.005690000000     0.289220000000     0.0496824  
H34      H      0.793760000000     0.889870000000     0.176740000000     0.0609596  
H35      H      0.785720000000     0.983940000000     0.181430000000     0.0685539  
H36      H      0.622750000000     0.364880000000     0.272430000000     0.0737609  
H37      H      0.527560000000     0.355080000000     0.220300000000     0.0536305  
H38      H      0.502270000000     0.265850000000     0.196070000000     0.0591409  
H39      H      0.627330000000     0.343290000000     0.342630000000     0.0780301  
H40      H      0.621250000000     0.252690000000     0.317990000000     0.0466472  
H41      H      0.462720000000     0.335380000000     0.257140000000     0.0575279  
H42      H      0.499580000000     0.246230000000     0.266890000000     0.058443   
H43      H      0.200320000000     0.903450000000     0.655650000000     0.0752791  
H44      H      0.143850000000     0.918260000000     0.741500000000     0.0560901  
H45      H      0.202290000000     0.932360000000     0.822070000000     0.0625216  
H46      H      0.237320000000     0.956700000000     0.622270000000     0.0811956  
H47      H      0.310930000000     0.962390000000     0.690420000000     0.0568258  
H48      H      0.130360000000     0.984200000000     0.764750000000     0.0619086  
H49      H      0.229420000000     0.993800000000     0.797210000000     0.0659099  
H50      H      0.607530000000     0.820140000000     0.667100000000     0.0746553  
H51      H      0.669450000000     0.838190000000     0.748730000000     0.0548936  
H52      H      0.613690000000     0.842540000000     0.831670000000     0.0601626  
H53      H      0.583250000000     0.754740000000     0.652090000000     0.0783534  
H54      H      0.514460000000     0.754220000000     0.726130000000     0.0484671  
H55      H      0.693860000000     0.784870000000     0.791540000000     0.0585633  
H56      H      0.598660000000     0.773720000000     0.831320000000     0.05632    
H57      H      0.464670000000     0.134030000000     0.960140000000     0.0748426  
H58      H      0.408690000000     0.092860000000     0.035650000000     0.0551706  
H59      H      0.392410000000     0.000920000000     0.025180000000     0.0593625  
H60      H      0.541920000000     0.123620000000     0.953490000000     0.0763285  
H61      H      0.531500000000     0.037090000000     0.922090000000     0.0463047  
H62      H      0.447000000000     0.061010000000     0.091160000000     0.0613527  
H63      H      0.467880000000     0.985390000000     0.036210000000     0.0590599  
H64      H      0.023130000000     0.703640000000     0.226620000000     0.0779532  
H65      H      0.110100000000     0.765450000000     0.288510000000     0.0596125  
H66      H      0.178390000000     0.798250000000     0.219630000000     0.0596908  
H67      H      0.970060000000     0.744960000000     0.193190000000     0.0801383  
H68      H      0.045680000000     0.784440000000     0.135870000000     0.0412037  
H69      H      0.098310000000     0.834630000000     0.280610000000     0.0628996  
H70      H      0.120730000000     0.831330000000     0.183180000000     0.0550119  
H71      H      0.272470000000     0.758010000000     0.008250000000     0.0761976  
H72      H      0.387590000000     0.754090000000     0.052600000000     0.0580593  
H73      H      0.415710000000     0.662490000000     0.061740000000     0.0558944  
H74      H      0.268800000000     0.743840000000     0.935930000000     0.0790446  
H75      H      0.296090000000     0.653080000000     0.949330000000     0.0433532  
H76      H      0.443350000000     0.740550000000     0.002350000000     0.0585265  
H77      H      0.407900000000     0.652140000000     0.988450000000     0.0529895  
H78      H      0.304400000000     0.639570000000     0.408850000000     0.0755242  
H79      H      0.398780000000     0.653610000000     0.365000000000     0.0551077  
H80      H      0.461640000000     0.579700000000     0.367240000000     0.0575122  
H81      H      0.247750000000     0.602410000000     0.376000000000     0.0752427  
H82      H      0.292090000000     0.521980000000     0.393540000000     0.0472602  
H83      H      0.409370000000     0.636620000000     0.293780000000     0.0589381  
H84      H      0.422280000000     0.546470000000     0.314220000000     0.0584646  
H85      H      0.136470000000     0.301570000000     0.762480000000     0.0753155  
H86      H      0.045770000000     0.332320000000     0.709820000000     0.0581436  
H87      H      0.981960000000     0.258280000000     0.689140000000     0.0565926  
H88      H      0.131480000000     0.290480000000     0.835650000000     0.0788415  
H89      H      0.068500000000     0.213650000000     0.821490000000     0.0418832  
H90      H      0.978110000000     0.342070000000     0.746400000000     0.0608366  
H91      H      0.967400000000     0.247790000000     0.761360000000     0.0536081  
H92      H      0.888180000000     0.182240000000     0.981620000000     0.0737272  
H93      H      0.804310000000     0.225620000000     0.929610000000     0.0538365  
H94      H      0.719350000000     0.244590000000     0.985470000000     0.060674   
H95      H      0.930140000000     0.220200000000     0.029740000000     0.0809651  
H96      H      0.851210000000     0.226150000000     0.093930000000     0.0519515  
H97      H      0.795050000000     0.295550000000     0.935210000000     0.0579122  
H98      H      0.760190000000     0.287700000000     0.029330000000     0.0600434  
H99      H      0.916840000000     0.526900000000     0.792480000000     0.0811141  
H100     H      0.809980000000     0.503000000000     0.860780000000     0.0590515  
H101     H      0.838160000000     0.526800000000     0.953930000000     0.0612102  
H102     H      0.921510000000     0.596100000000     0.778830000000     0.0867657  
H103     H      0.932800000000     0.615520000000     0.876270000000     0.0430437  
H104     H      0.772430000000     0.562460000000     0.878290000000     0.0588696  
H105     H      0.853100000000     0.593250000000     0.933910000000     0.0548413  
H106     H      0.126190000000     0.409670000000     0.200980000000     0.0735099  
H107     H      0.203820000000     0.387390000000     0.136260000000     0.0532277  
H108     H      0.175740000000     0.383590000000     0.042000000000     0.0608576  
H109     H      0.097190000000     0.474720000000     0.205070000000     0.0763674  
H110     H      0.043820000000     0.467240000000     0.124190000000     0.0518478  
H111     H      0.244790000000     0.438720000000     0.102880000000     0.0586298  
H112     H      0.169870000000     0.453200000000     0.036320000000     0.0672239  
N1       N      0.947420000000     0.984400000000     0.437600000000    -0.154952   
N2       N      0.994430000000     0.062940000000     0.505770000000    -0.145225   
N3       N      0.821470000000     0.664090000000     0.542170000000    -0.155445   
N4       N      0.868500000000     0.712550000000     0.448480000000    -0.146117   
N5       N      0.257030000000     0.209140000000     0.546210000000    -0.15518    
N6       N      0.340880000000     0.269440000000     0.488230000000    -0.145301   
N7       N      0.553910000000     0.437100000000     0.589360000000    -0.154034   
N8       N      0.627930000000     0.484030000000     0.665940000000    -0.145964   
N9       N      0.696260000000     0.990400000000     0.203720000000    -0.154108   
N10      N      0.751540000000     0.904660000000     0.254500000000    -0.145318   
N11      N      0.585800000000     0.259260000000     0.237600000000    -0.156185   
N12      N      0.542170000000     0.340440000000     0.304800000000    -0.146402   
N13      N      0.267800000000     0.927660000000     0.758640000000    -0.152356   
N14      N      0.183530000000     0.976370000000     0.691970000000    -0.144291   
N15      N      0.547770000000     0.816960000000     0.774260000000    -0.154555   
N16      N      0.639980000000     0.763900000000     0.722230000000    -0.146376   
N17      N      0.449640000000     0.016080000000     0.956920000000    -0.155529   
N18      N      0.500590000000     0.091270000000     0.025510000000    -0.144855   
N19      N      0.117730000000     0.748440000000     0.175530000000    -0.158393   
N20      N      0.030980000000     0.784130000000     0.247400000000    -0.144004   
N21      N      0.327970000000     0.661560000000     0.030470000000    -0.161632   
N22      N      0.355490000000     0.750980000000     0.970860000000    -0.144793   
N23      N      0.382210000000     0.542480000000     0.392950000000    -0.154794   
N24      N      0.325790000000     0.616210000000     0.328620000000    -0.145093   
N25      N      0.052780000000     0.226480000000     0.736870000000    -0.162458   
N26      N      0.052870000000     0.318750000000     0.795600000000    -0.144114   
N27      N      0.779770000000     0.207360000000     0.041780000000    -0.15477    
N28      N      0.866220000000     0.262040000000     0.981700000000    -0.145991   
N29      N      0.916010000000     0.538520000000     0.904850000000    -0.157051   
N30      N      0.842490000000     0.569910000000     0.819050000000    -0.143523   
N31      N      0.097990000000     0.417020000000     0.076620000000    -0.152819   
N32      N      0.171720000000     0.463690000000     0.152240000000    -0.145269   
O1       O      0.005920000000     0.409370000000     0.037990000000    -0.224899   
O2       O      0.985840000000     0.473150000000     0.897080000000    -0.223046   
O3       O      0.956120000000     0.302800000000     0.986390000000    -0.24021    
O4       O      0.059320000000     0.340470000000     0.887550000000    -0.235698   
O5       O      0.982490000000     0.364920000000     0.843130000000    -0.244824   
O6       O      0.887250000000     0.342090000000     0.942390000000    -0.243806   
O7       O      0.080460000000     0.396660000000     0.985450000000    -0.234241   
O8       O      0.912350000000     0.459020000000     0.950050000000    -0.240584   
O9       O      0.242160000000     0.610250000000     0.275900000000    -0.244878   
O10      O      0.140940000000     0.661680000000     0.158360000000    -0.215975   
O11      O      0.240180000000     0.528630000000     0.138340000000    -0.244966   
O12      O      0.329700000000     0.635430000000     0.121720000000    -0.236533   
O13      O      0.247500000000     0.640580000000     0.078370000000    -0.205787   
O14      O      0.165730000000     0.546720000000     0.189110000000    -0.236556   
O15      O      0.323770000000     0.624450000000     0.234220000000    -0.24038    
O16      O      0.207480000000     0.710660000000     0.193450000000    -0.249517   
O17      O      0.422590000000     0.810080000000     0.936730000000    -0.246496   
O18      O      0.362400000000     0.899770000000     0.776090000000    -0.208792   
O19      O      0.448980000000     0.831430000000     0.788560000000    -0.214288   
O20      O      0.403830000000     0.935860000000     0.948150000000    -0.24679    
O21      O      0.451320000000     0.964950000000     0.878290000000    -0.224416   
O22      O      0.509210000000     0.859910000000     0.849690000000    -0.240433   
O23      O      0.336150000000     0.810680000000     0.901850000000    -0.238681   
O24      O      0.304740000000     0.909560000000     0.845190000000    -0.238068   
O25      O      0.652650000000     0.196140000000     0.209950000000    -0.219778   
O26      O      0.647640000000     0.070050000000     0.206920000000    -0.221067   
O27      O      0.682130000000     0.189570000000     0.057730000000    -0.2398     
O28      O      0.592350000000     0.125460000000     0.041470000000    -0.237119   
O29      O      0.544590000000     0.094980000000     0.110850000000    -0.238613   
O30      O      0.744790000000     0.155670000000     0.113030000000    -0.21627    
O31      O      0.571350000000     0.200850000000     0.166360000000    -0.246674   
O32      O      0.690720000000     0.049100000000     0.131460000000    -0.238959   
O33      O      0.359300000000     0.350010000000     0.449010000000    -0.237551   
O34      O      0.542970000000     0.398450000000     0.504090000000    -0.237288   
O35      O      0.376800000000     0.464690000000     0.441500000000    -0.220916   
O36      O      0.458680000000     0.362890000000     0.352470000000    -0.247947   
O37      O      0.541360000000     0.370730000000     0.394170000000    -0.237108   
O38      O      0.457260000000     0.482110000000     0.399190000000    -0.248059   
O39      O      0.430130000000     0.311730000000     0.491130000000    -0.241572   
O40      O      0.467940000000     0.437080000000     0.538910000000    -0.221496   
O41      O      0.711020000000     0.702560000000     0.742510000000    -0.245754   
O42      O      0.713500000000     0.531070000000     0.656530000000    -0.244043   
O43      O      0.751340000000     0.588730000000     0.783000000000    -0.243922   
O44      O      0.814850000000     0.656250000000     0.636770000000    -0.221988   
O45      O      0.742210000000     0.629020000000     0.588370000000    -0.242946   
O46      O      0.826730000000     0.602720000000     0.731840000000    -0.228958   
O47      O      0.654760000000     0.687820000000     0.673340000000    -0.243681   
O48      O      0.640860000000     0.568570000000     0.697080000000    -0.241611   
O49      O      0.934250000000     0.792910000000     0.273010000000    -0.24061    
O50      O      0.919740000000     0.786730000000     0.424000000000    -0.245364   
O51      O      0.845830000000     0.873380000000     0.262500000000    -0.239102   
O52      O      0.895770000000     0.906920000000     0.428680000000    -0.242696   
O53      O      0.950060000000     0.930640000000     0.360860000000    -0.221604   
O54      O      0.795320000000     0.881880000000     0.336660000000    -0.240899   
O55      O      0.998430000000     0.838520000000     0.316850000000    -0.236306   
O56      O      0.840390000000     0.769750000000     0.379850000000    -0.244562   
O57      O      0.128280000000     0.051920000000     0.694170000000    -0.236129   
O58      O      0.160580000000     0.183540000000     0.555930000000    -0.241764   
O59      O      0.118860000000     0.168640000000     0.705840000000    -0.205387   
O60      O      0.082760000000     0.101510000000     0.527430000000    -0.238505   
O61      O      0.028460000000     0.075000000000     0.594230000000    -0.244158   
O62      O      0.044150000000     0.182660000000     0.653870000000    -0.243218   
O63      O      0.179660000000     0.036930000000     0.621590000000    -0.234989   
O64      O      0.223650000000     0.147810000000     0.609350000000    -0.214934   


