data_structure

_audit_creation_method RASPA-1.0
_audit_creation_date 2023-5-22
_audit_author_name 'Poobodin Mano'

_cell_length_a    24.0175
_cell_length_b    27.7047
_cell_length_c    25.5676
_cell_angle_alpha 90
_cell_angle_beta  90
_cell_angle_gamma 90
_cell_volume      17012.6

_symmetry_cell_setting          triclinic
_symmetry_space_group_name_Hall 'P 1'
_symmetry_space_group_name_H-M  'P 1'
_symmetry_Int_Tables_number     1

_symmetry_equiv_pos_as_xyz 'x,y,z'

loop_
_atom_site_label
_atom_site_type_symbol
_atom_site_fract_x
_atom_site_fract_y
_atom_site_fract_z
_atom_site_charge
C1       C      0.972680000000     0.403770000000     0.941230000000     0.350313   
C2       C      0.963540000000     0.268050000000     0.816990000000     0.35133    
C3       C      0.838340000000     0.275120000000     0.942890000000     0.350989   
C4       C      0.844720000000     0.406350000000     0.813650000000     0.351307   
C5       C      0.084780000000     0.541090000000     0.052260000000     0.340432   
C6       C      0.212830000000     0.526610000000     0.191500000000     0.340945   
C7       C      0.225940000000     0.658920000000     0.069400000000     0.338837   
C8       C      0.083400000000     0.649760000000     0.195930000000     0.339303   
C9       C      0.466400000000     0.900490000000     0.932630000000     0.351877   
C10      C      0.336620000000     0.773310000000     0.928520000000     0.351102   
C11      C      0.337310000000     0.901520000000     0.795880000000     0.341037   
C12      C      0.471120000000     0.779520000000     0.798550000000     0.352436   
C13      C      0.731420000000     0.130430000000     0.044130000000     0.335858   
C14      C      0.603700000000     0.001990000000     0.062480000000     0.338967   
C15      C      0.728680000000     0.015480000000     0.189000000000     0.34938    
C16      C      0.605770000000     0.151470000000     0.170540000000     0.339651   
C17      C      0.344020000000     0.393140000000     0.290840000000     0.349124   
C18      C      0.473890000000     0.264820000000     0.294240000000     0.352798   
C19      C      0.473710000000     0.393670000000     0.424570000000     0.351807   
C20      C      0.341460000000     0.274940000000     0.429610000000     0.353582   
C21      C      0.707830000000     0.502240000000     0.680560000000     0.340065   
C22      C      0.568880000000     0.523710000000     0.555900000000     0.339259   
C23      C      0.580690000000     0.640400000000     0.686480000000     0.339996   
C24      C      0.724640000000     0.633670000000     0.567640000000     0.338261   
C25      C      0.970840000000     0.774960000000     0.324560000000     0.352724   
C26      C      0.971560000000     0.886330000000     0.463380000000     0.33887    
C27      C      0.841930000000     0.907330000000     0.333050000000     0.341971   
C28      C      0.830980000000     0.766960000000     0.446940000000     0.352722   
C29      C      0.091470000000     0.164980000000     0.681800000000     0.338676   
C30      C      0.209730000000     0.035380000000     0.696830000000     0.351884   
C31      C      0.090210000000     0.027130000000     0.558900000000     0.352676   
C32      C      0.213760000000     0.150980000000     0.544820000000     0.339777   
C33      C      0.980990000000     0.939110000000     0.541030000000    -0.01726    
C34      C      0.065420000000     0.912880000000     0.491460000000    -0.0682255  
C35      C      0.999170000000     0.991740000000     0.536270000000    -0.0114526  
C36      C      0.084750000000     0.965550000000     0.486730000000     0.16406    
C37      C      0.786780000000     0.704980000000     0.564180000000    -0.0173541  
C38      C      0.780850000000     0.648430000000     0.487970000000    -0.0683399  
C39      C      0.778720000000     0.747880000000     0.527390000000    -0.0118022  
C40      C      0.773040000000     0.691330000000     0.450580000000     0.163995   
C41      C      0.298470000000     0.163570000000     0.491370000000    -0.0172889  
C42      C      0.215390000000     0.217350000000     0.479960000000    -0.0684445  
C43      C      0.336300000000     0.207860000000     0.492800000000    -0.0116064  
C44      C      0.253270000000     0.262030000000     0.480860000000     0.163906   
C45      C      0.495210000000     0.462170000000     0.543320000000    -0.0171001  
C46      C      0.531480000000     0.509070000000     0.467000000000    -0.0679183  
C47      C      0.504710000000     0.415060000000     0.513550000000    -0.0118522  
C48      C      0.541390000000     0.462040000000     0.436510000000     0.163623   
C49      C      0.753130000000     0.947270000000     0.309360000000    -0.0166742  
C50      C      0.843650000000     0.979820000000     0.276450000000    -0.0676245  
C51      C      0.728670000000     0.950110000000     0.254280000000    -0.0122546  
C52      C      0.820080000000     0.982880000000     0.220730000000     0.163323   
C53      C      0.601300000000     0.214030000000     0.239700000000    -0.0174146  
C54      C      0.524090000000     0.205870000000     0.174600000000    -0.0659683  
C55      C      0.558800000000     0.215680000000     0.284180000000    -0.0115105  
C56      C      0.480970000000     0.207020000000     0.218750000000     0.16642    
C57      C      0.332280000000     0.974740000000     0.740460000000    -0.0177959  
C58      C      0.249550000000     0.919650000000     0.748880000000    -0.0688104  
C59      C      0.294240000000     0.018360000000     0.748870000000    -0.0115586  
C60      C      0.211840000000     0.963700000000     0.757630000000     0.164284   
C61      C      0.495040000000     0.688680000000     0.699840000000    -0.0177616  
C62      C      0.565840000000     0.680490000000     0.771750000000    -0.0688926  
C63      C      0.489540000000     0.742530000000     0.712290000000    -0.0114877  
C64      C      0.560840000000     0.734630000000     0.783270000000     0.164737   
C65      C      0.595810000000     0.944100000000     0.989050000000    -0.0170675  
C66      C      0.520730000000     0.949040000000     0.056590000000    -0.0679778  
C67      C      0.552270000000     0.947650000000     0.945690000000    -0.0117498  
C68      C      0.476180000000     0.951480000000     0.013500000000     0.163572   
C69      C      0.001150000000     0.702090000000     0.209820000000    -0.0173831  
C70      C      0.055200000000     0.670240000000     0.286340000000    -0.0686044  
C71      C      0.999450000000     0.751970000000     0.235310000000    -0.0114244  
C72      C      0.053340000000     0.720210000000     0.312250000000     0.164382   
C73      C      0.250220000000     0.741680000000     0.040390000000    -0.0175203  
C74      C      0.312560000000     0.672060000000     0.018690000000    -0.0679626  
C75      C      0.253910000000     0.759300000000     0.983770000000    -0.0116831  
C76      C      0.316820000000     0.689560000000     0.961780000000     0.16344    
C77      C      0.291550000000     0.509650000000     0.251180000000    -0.0168261  
C78      C      0.217820000000     0.447060000000     0.235570000000    -0.0682936  
C79      C      0.336470000000     0.471070000000     0.244670000000    -0.0125933  
C80      C      0.263000000000     0.408020000000     0.230340000000     0.163646   
C81      C      0.087130000000     0.223160000000     0.755280000000    -0.0175832  
C82      C      0.005220000000     0.212270000000     0.695410000000    -0.0688927  
C83      C      0.048340000000     0.219360000000     0.802560000000    -0.0115545  
C84      C      0.966510000000     0.208120000000     0.742930000000     0.16456    
C85      C      0.821630000000     0.167460000000     0.019630000000    -0.0179023  
C86      C      0.737760000000     0.178890000000     0.962830000000    -0.0686769  
C87      C      0.831300000000     0.222000000000     0.020150000000    -0.0117446  
C88      C      0.747340000000     0.233720000000     0.962870000000     0.163746   
C89      C      0.717040000000     0.449250000000     0.758080000000    -0.01736    
C90      C      0.791680000000     0.450670000000     0.689600000000    -0.0686076  
C91      C      0.761000000000     0.456620000000     0.800560000000    -0.0115615  
C92      C      0.836120000000     0.457280000000     0.732290000000     0.164057   
C93      C      0.993820000000     0.504810000000     0.029170000000    -0.0169461  
C94      C      0.073460000000     0.500940000000     0.966250000000    -0.067921   
C95      C      0.983920000000     0.450700000000     0.022460000000    -0.0121575  
C96      C      0.063290000000     0.446650000000     0.958200000000     0.163253   
Cd1      Cd     0.905080000000     0.339020000000     0.879020000000     0.513371   
Cd2      Cd     0.152720000000     0.594090000000     0.126070000000     0.508249   
Cd3      Cd     0.401250000000     0.839150000000     0.864130000000     0.510937   
Cd4      Cd     0.665920000000     0.075330000000     0.117460000000     0.509733   
Cd5      Cd     0.409010000000     0.330600000000     0.358190000000     0.511683   
Cd6      Cd     0.645440000000     0.574510000000     0.623370000000     0.508539   
Cd7      Cd     0.901740000000     0.834170000000     0.391130000000     0.510908   
Cd8      Cd     0.152600000000     0.095130000000     0.621030000000     0.511777   
H1       H      0.978630000000     0.007520000000     0.501220000000     0.0503299  
H2       H      0.934780000000     0.937330000000     0.542540000000     0.0562812  
H3       H      0.068770000000     0.980110000000     0.448890000000     0.0129524  
H4       H      0.080210000000     0.892150000000     0.456910000000     0.0710039  
H5       H      0.983840000000     0.011800000000     0.571040000000     0.0566452  
H6       H      0.997410000000     0.924570000000     0.578530000000     0.0538845  
H7       H      0.084960000000     0.896860000000     0.526890000000     0.0734567  
H8       H      0.155740000000     0.958830000000     0.450920000000     0.14899    
H9       H      0.733580000000     0.756760000000     0.526290000000     0.0497624  
H10      H      0.768710000000     0.713860000000     0.603030000000     0.0549514  
H11      H      0.727410000000     0.697480000000     0.445650000000     0.0129561  
H12      H      0.758470000000     0.616520000000     0.472050000000     0.0704313  
H13      H      0.800790000000     0.779630000000     0.544020000000     0.0558392  
H14      H      0.832240000000     0.699090000000     0.569460000000     0.0526554  
H15      H      0.825950000000     0.639370000000     0.489540000000     0.072916   
H16      H      0.769830000000     0.659730000000     0.382760000000     0.148927   
H17      H      0.342340000000     0.218400000000     0.534400000000     0.0501605  
H18      H      0.316880000000     0.134760000000     0.516200000000     0.05689    
H19      H      0.255440000000     0.275350000000     0.522000000000     0.0126893  
H20      H      0.174180000000     0.227070000000     0.496740000000     0.0703617  
H21      H      0.377720000000     0.197640000000     0.476910000000     0.0554515  
H22      H      0.296960000000     0.149990000000     0.450460000000     0.0533112  
H23      H      0.208700000000     0.206550000000     0.438520000000     0.0737589  
H24      H      0.200590000000     0.314220000000     0.469220000000     0.149753   
H25      H      0.546300000000     0.400750000000     0.524730000000     0.0503657  
H26      H      0.500220000000     0.455520000000     0.585940000000     0.0557584  
H27      H      0.585210000000     0.450340000000     0.443640000000     0.0135243  
H28      H      0.562640000000     0.536450000000     0.454600000000     0.0698982  
H29      H      0.473120000000     0.388270000000     0.526440000000     0.0553952  
H30      H      0.451570000000     0.473960000000     0.536390000000     0.052346   
H31      H      0.489450000000     0.523060000000     0.456740000000     0.0717003  
H32      H      0.568220000000     0.485750000000     0.369530000000     0.149094   
H33      H      0.733250000000     0.914080000000     0.235580000000     0.0504618  
H34      H      0.733280000000     0.916880000000     0.330770000000     0.0555807  
H35      H      0.831300000000     0.948910000000     0.199760000000     0.0132195  
H36      H      0.889200000000     0.972960000000     0.274340000000     0.0693216  
H37      H      0.683360000000     0.957710000000     0.257550000000     0.0553254  
H38      H      0.742570000000     0.981250000000     0.330290000000     0.0515255  
H39      H      0.837430000000     0.015330000000     0.295920000000     0.0716558  
H40      H      0.881270000000     0.012100000000     0.182260000000     0.149291   
H41      H      0.554120000000     0.178550000000     0.300110000000     0.0498955  
H42      H      0.640400000000     0.197280000000     0.254260000000     0.0559288  
H43      H      0.472680000000     0.168670000000     0.229830000000     0.0101383  
H44      H      0.507810000000     0.183460000000     0.141930000000     0.0755824  
H45      H      0.575750000000     0.238730000000     0.316000000000     0.0558369  
H46      H      0.610970000000     0.251750000000     0.227910000000     0.0522095  
H47      H      0.529800000000     0.243260000000     0.159630000000     0.0737296  
H48      H      0.400300000000     0.208860000000     0.210860000000     0.160767   
H49      H      0.294110000000     0.027120000000     0.791320000000     0.0494245  
H50      H      0.374140000000     0.982970000000     0.756710000000     0.0559788  
H51      H      0.209970000000     0.970680000000     0.800600000000     0.0121842  
H52      H      0.232610000000     0.888430000000     0.771090000000     0.0702355  
H53      H      0.311990000000     0.049910000000     0.727820000000     0.0559038  
H54      H      0.337000000000     0.968980000000     0.697650000000     0.0539494  
H55      H      0.248660000000     0.910200000000     0.706600000000     0.0736762  
H56      H      0.139060000000     0.933960000000     0.765910000000     0.148143   
H57      H      0.518330000000     0.762700000000     0.686160000000     0.0488139  
H58      H      0.488260000000     0.683200000000     0.657230000000     0.0553147  
H59      H      0.592540000000     0.753830000000     0.759030000000     0.0118709  
H60      H      0.609080000000     0.668590000000     0.780450000000     0.0706336  
H61      H      0.446440000000     0.754280000000     0.702860000000     0.055245   
H62      H      0.461600000000     0.669020000000     0.721070000000     0.0536409  
H63      H      0.537370000000     0.660620000000     0.798490000000     0.0747291  
H64      H      0.612720000000     0.743080000000     0.840940000000     0.148493   
H65      H      0.548170000000     0.986210000000     0.934240000000     0.0508612  
H66      H      0.635340000000     0.960610000000     0.975220000000     0.0559471  
H67      H      0.467000000000     0.990320000000     0.005740000000     0.013202   
H68      H      0.505970000000     0.969450000000     0.091370000000     0.0700169  
H69      H      0.567860000000     0.927560000000     0.911030000000     0.057123   
H70      H      0.603850000000     0.905260000000     0.997020000000     0.0530723  
H71      H      0.525900000000     0.910670000000     0.068460000000     0.07219    
H72      H      0.407540000000     0.951430000000     0.053850000000     0.148984   
H73      H      0.034990000000     0.773450000000     0.219950000000     0.0495497  
H74      H      0.001730000000     0.706510000000     0.166610000000     0.0561279  
H75      H      0.091840000000     0.740100000000     0.300690000000     0.0123357  
H76      H      0.094460000000     0.651790000000     0.297790000000     0.0699044  
H77      H      0.960460000000     0.770390000000     0.223030000000     0.0554304  
H78      H      0.962320000000     0.682530000000     0.220430000000     0.0538826  
H79      H      0.019910000000     0.648390000000     0.301630000000     0.0739134  
H80      H      0.091090000000     0.708570000000     0.378350000000     0.149094   
H81      H      0.217690000000     0.744480000000     0.961930000000     0.0498695  
H82      H      0.208910000000     0.751730000000     0.056670000000     0.0554648  
H83      H      0.283910000000     0.670730000000     0.938670000000     0.0127411  
H84      H      0.316000000000     0.632040000000     0.019490000000     0.0702419  
H85      H      0.250080000000     0.799280000000     0.983590000000     0.0566483  
H86      H      0.282650000000     0.760710000000     0.063600000000     0.0536906  
H87      H      0.348440000000     0.686980000000     0.040960000000     0.0733576  
H88      H      0.368020000000     0.642990000000     0.931360000000     0.14918    
H89      H      0.349780000000     0.470750000000     0.203010000000     0.0513987  
H90      H      0.308210000000     0.544800000000     0.237220000000     0.0563147  
H91      H      0.273590000000     0.404590000000     0.187990000000     0.0134281  
H92      H      0.182030000000     0.437450000000     0.210040000000     0.0696055  
H93      H      0.373180000000     0.481510000000     0.268610000000     0.0587214  
H94      H      0.282040000000     0.513300000000     0.293560000000     0.0535964  
H95      H      0.202670000000     0.447220000000     0.276690000000     0.0739865  
H96      H      0.218850000000     0.349900000000     0.220510000000     0.149694   
H97      H      0.047570000000     0.181050000000     0.815550000000     0.0496212  
H98      H      0.128640000000     0.208410000000     0.765970000000     0.0559699  
H99      H      0.963490000000     0.169130000000     0.753610000000     0.0127733  
H100     H      0.988320000000     0.190000000000     0.662910000000     0.0716121  
H101     H      0.065950000000     0.241170000000     0.835070000000     0.0570083  
H102     H      0.092470000000     0.262010000000     0.745550000000     0.0546083  
H103     H      0.005560000000     0.250530000000     0.682210000000     0.0748042  
H104     H      0.894070000000     0.199570000000     0.710280000000     0.149384   
H105     H      0.810360000000     0.237190000000     0.055290000000     0.0508868  
H106     H      0.836910000000     0.151750000000     0.056970000000     0.0588802  
H107     H      0.722720000000     0.249390000000     0.995780000000     0.0129321  
H108     H      0.692440000000     0.171380000000     0.959330000000     0.0700843  
H109     H      0.876670000000     0.228950000000     0.024240000000     0.0559806  
H110     H      0.846640000000     0.151690000000     0.987250000000     0.0528122  
H111     H      0.758720000000     0.163330000000     0.927890000000     0.0725428  
H112     H      0.687580000000     0.256490000000     0.917900000000     0.149016   
H113     H      0.764910000000     0.496020000000     0.808090000000     0.0502285  
H114     H      0.677320000000     0.466130000000     0.770850000000     0.0569299  
H115     H      0.843110000000     0.496830000000     0.737430000000     0.0126916  
H116     H      0.805690000000     0.468890000000     0.653160000000     0.0699706  
H117     H      0.746150000000     0.439410000000     0.837260000000     0.0576229  
H118     H      0.709700000000     0.409830000000     0.753630000000     0.0548907  
H119     H      0.787700000000     0.411450000000     0.681070000000     0.0741457  
H120     H      0.904560000000     0.457710000000     0.691680000000     0.149422   
H121     H      0.006990000000     0.431410000000     0.053860000000     0.0510705  
H122     H      0.981240000000     0.515690000000     0.069310000000     0.0560517  
H123     H      0.090790000000     0.426660000000     0.985940000000     0.0132019  
H124     H      0.118570000000     0.508720000000     0.961340000000     0.0691965  
H125     H      0.938840000000     0.443330000000     0.028190000000     0.0558788  
H126     H      0.966660000000     0.524330000000     0.000990000000     0.0518449  
H127     H      0.050550000000     0.521020000000     0.935320000000     0.0716565  
H128     H      0.118310000000     0.430550000000     0.905200000000     0.14929    
N1       N      0.060180000000     0.994950000000     0.529500000000    -0.165946   
N2       N      0.004580000000     0.911230000000     0.497450000000    -0.144774   
N3       N      0.797290000000     0.735650000000     0.473910000000    -0.166167   
N4       N      0.762090000000     0.661430000000     0.540920000000    -0.144943   
N5       N      0.310500000000     0.248630000000     0.464540000000    -0.166078   
N6       N      0.241880000000     0.176930000000     0.507830000000    -0.144776   
N7       N      0.504020000000     0.423550000000     0.456480000000    -0.16609    
N8       N      0.533290000000     0.499460000000     0.523550000000    -0.145238   
N9       N      0.758370000000     0.986150000000     0.222050000000    -0.165657   
N10      N      0.813990000000     0.942660000000     0.306540000000    -0.145801   
N11      N      0.503970000000     0.232380000000     0.265140000000    -0.168891   
N12      N      0.577790000000     0.188260000000     0.194560000000    -0.145743   
N13      N      0.236950000000     0.006700000000     0.732350000000    -0.166363   
N14      N      0.307280000000     0.931190000000     0.763780000000    -0.145044   
N15      N      0.505090000000     0.752170000000     0.767140000000    -0.165829   
N16      N      0.549420000000     0.670200000000     0.717390000000    -0.144829   
N17      N      0.497580000000     0.930100000000     0.964170000000    -0.165683   
N18      N      0.574380000000     0.966980000000     0.036800000000    -0.145033   
N19      N      0.004880000000     0.748130000000     0.292690000000    -0.165556   
N20      N      0.049240000000     0.674520000000     0.229250000000    -0.144578   
N21      N      0.305660000000     0.742200000000     0.958620000000    -0.165214   
N22      N      0.260720000000     0.689430000000     0.042860000000    -0.144765   
N23      N      0.314280000000     0.423000000000     0.258330000000    -0.164376   
N24      N      0.240580000000     0.495130000000     0.223410000000    -0.14499    
N25      N      0.991330000000     0.234080000000     0.787980000000    -0.165893   
N26      N      0.062280000000     0.198310000000     0.710070000000    -0.144638   
N27      N      0.807010000000     0.244340000000     0.972920000000    -0.166111   
N28      N      0.762340000000     0.157410000000     0.010110000000    -0.144221   
N29      N      0.815350000000     0.437860000000     0.782770000000    -0.165482   
N30      N      0.737560000000     0.468780000000     0.708170000000    -0.145255   
N31      N      0.004750000000     0.434080000000     0.971170000000    -0.165688   
N32      N      0.052310000000     0.516230000000     0.017600000000    -0.145476   
O1       O      0.985750000000     0.288300000000     0.856170000000    -0.244736   
O2       O      0.825900000000     0.391610000000     0.857030000000    -0.244713   
O3       O      0.923840000000     0.391850000000     0.954670000000    -0.250526   
O4       O      0.888880000000     0.283930000000     0.953290000000    -0.25072    
O5       O      0.818880000000     0.296500000000     0.903210000000    -0.223774   
O6       O      0.989960000000     0.385520000000     0.898900000000    -0.224778   
O7       O      0.914290000000     0.281060000000     0.806650000000    -0.224408   
O8       O      0.892020000000     0.390100000000     0.800860000000    -0.223868   
O9       O      0.168080000000     0.515080000000     0.168520000000    -0.249504   
O10      O      0.076420000000     0.650550000000     0.146830000000    -0.242763   
O11      O      0.066490000000     0.554620000000     0.096240000000    -0.246995   
O12      O      0.235570000000     0.614140000000     0.072960000000    -0.245433   
O13      O      0.182360000000     0.673800000000     0.092090000000    -0.248627   
O14      O      0.134840000000     0.551990000000     0.042290000000    -0.249431   
O15      O      0.230000000000     0.569220000000     0.183730000000    -0.245797   
O16      O      0.123250000000     0.624010000000     0.212440000000    -0.248537   
O17      O      0.324540000000     0.817650000000     0.924570000000    -0.243584   
O18      O      0.424690000000     0.795590000000     0.782650000000    -0.250208   
O19      O      0.417360000000     0.887640000000     0.944060000000    -0.228745   
O20      O      0.317330000000     0.862720000000     0.814090000000    -0.246718   
O21      O      0.386790000000     0.911200000000     0.809100000000    -0.250377   
O22      O      0.484900000000     0.884740000000     0.889590000000    -0.244578   
O23      O      0.378550000000     0.759690000000     0.902510000000    -0.22741    
O24      O      0.484280000000     0.790770000000     0.844900000000    -0.220466   
O25      O      0.650840000000     0.016320000000     0.046630000000    -0.248555   
O26      O      0.652530000000     0.136680000000     0.186710000000    -0.250156   
O27      O      0.680250000000     0.121970000000     0.036430000000    -0.246516   
O28      O      0.751820000000     0.040910000000     0.154140000000    -0.223778   
O29      O      0.676070000000     0.018040000000     0.190830000000    -0.250636   
O30      O      0.752190000000     0.112850000000     0.085440000000    -0.237539   
O31      O      0.585380000000     0.021850000000     0.103600000000    -0.245293   
O32      O      0.586650000000     0.130500000000     0.130470000000    -0.247797   
O33      O      0.424240000000     0.275960000000     0.283370000000    -0.237802   
O34      O      0.390040000000     0.262110000000     0.416380000000    -0.251491   
O35      O      0.328750000000     0.350510000000     0.301400000000    -0.218478   
O36      O      0.478420000000     0.394210000000     0.375270000000    -0.222656   
O37      O      0.439370000000     0.363420000000     0.442880000000    -0.251295   
O38      O      0.389170000000     0.406540000000     0.311830000000    -0.242842   
O39      O      0.493850000000     0.284830000000     0.334550000000    -0.25046    
O40      O      0.323980000000     0.313750000000     0.409230000000    -0.223547   
O41      O      0.572910000000     0.513830000000     0.604090000000    -0.24876    
O42      O      0.708140000000     0.644590000000     0.613190000000    -0.249512   
O43      O      0.661220000000     0.517720000000     0.696230000000    -0.245847   
O44      O      0.625920000000     0.622130000000     0.702390000000    -0.245313   
O45      O      0.565720000000     0.628830000000     0.640670000000    -0.250132   
O46      O      0.725440000000     0.519840000000     0.638030000000    -0.251035   
O47      O      0.599970000000     0.557210000000     0.539290000000    -0.244399   
O48      O      0.704460000000     0.595480000000     0.548230000000    -0.242013   
O49      O      0.991680000000     0.862430000000     0.425690000000    -0.243277   
O50      O      0.851880000000     0.803830000000     0.468500000000    -0.247658   
O51      O      0.931810000000     0.800770000000     0.306340000000    -0.248598   
O52      O      0.894510000000     0.905240000000     0.333560000000    -0.25091    
O53      O      0.816810000000     0.875070000000     0.358910000000    -0.249906   
O54      O      0.976930000000     0.776280000000     0.373720000000    -0.223742   
O55      O      0.919080000000     0.886060000000     0.467510000000    -0.245155   
O56      O      0.842780000000     0.761340000000     0.399110000000    -0.228589   
O57      O      0.160080000000     0.027450000000     0.682810000000    -0.230321   
O58      O      0.164170000000     0.160940000000     0.557410000000    -0.250583   
O59      O      0.141340000000     0.154050000000     0.692690000000    -0.249702   
O60      O      0.067850000000     0.051760000000     0.594940000000    -0.243882   
O61      O      0.141640000000     0.034400000000     0.551700000000    -0.229973   
O62      O      0.070170000000     0.143360000000     0.643060000000    -0.241944   
O63      O      0.232950000000     0.071610000000     0.675870000000    -0.246045   
O64      O      0.235530000000     0.115320000000     0.568080000000    -0.242407   
O65      O      0.143260000000     0.966810000000     0.486930000000    -0.257826   
O66      O      0.797140000000     0.679950000000     0.402010000000    -0.257901   
O67      O      0.230070000000     0.297840000000     0.448560000000    -0.25554    
O68      O      0.533350000000     0.470960000000     0.382910000000    -0.257464   
O69      O      0.844300000000     0.022710000000     0.195320000000    -0.257321   
O70      O      0.432300000000     0.228990000000     0.199500000000    -0.264999   
O71      O      0.158130000000     0.953570000000     0.738770000000    -0.258199   
O72      O      0.571630000000     0.742760000000     0.836590000000    -0.255503   
O73      O      0.427780000000     0.928110000000     0.031290000000    -0.258274   
O74      O      0.052140000000     0.714260000000     0.366850000000    -0.256884   
O75      O      0.369660000000     0.677410000000     0.942090000000    -0.256637   
O76      O      0.241880000000     0.363930000000     0.248970000000    -0.254276   
O77      O      0.913470000000     0.225720000000     0.729610000000    -0.255434   
O78      O      0.728640000000     0.253090000000     0.915180000000    -0.256545   
O79      O      0.885890000000     0.435090000000     0.716180000000    -0.255347   
O80      O      0.077230000000     0.434420000000     0.906460000000    -0.256979   


