data_structure

_audit_creation_method RASPA-1.0
_audit_creation_date 2023-5-22
_audit_author_name 'Poobodin Mano'

_cell_length_a    22.2575
_cell_length_b    28.5921
_cell_length_c    26.5079
_cell_angle_alpha 90
_cell_angle_beta  90
_cell_angle_gamma 90
_cell_volume      16869.3

_symmetry_cell_setting          triclinic
_symmetry_space_group_name_Hall 'P 1'
_symmetry_space_group_name_H-M  'P 1'
_symmetry_Int_Tables_number     1

_symmetry_equiv_pos_as_xyz 'x,y,z'

loop_
_atom_site_label
_atom_site_type_symbol
_atom_site_fract_x
_atom_site_fract_y
_atom_site_fract_z
_atom_site_charge
C1       C      0.011460000000     0.380550000000     0.931550000000     0.351383   
C2       C      0.875090000000     0.402430000000     0.810600000000     0.340727   
C3       C      0.003410000000     0.278290000000     0.779110000000     0.341296   
C4       C      0.887330000000     0.258580000000     0.923470000000     0.351475   
C5       C      0.276760000000     0.625540000000     0.034720000000     0.340723   
C6       C      0.141730000000     0.505750000000     0.052030000000     0.343883   
C7       C      0.265110000000     0.511370000000     0.179570000000     0.35093    
C8       C      0.140780000000     0.643240000000     0.165970000000     0.349644   
C9       C      0.382500000000     0.758410000000     0.914660000000     0.34892    
C10      C      0.512610000000     0.886560000000     0.913300000000     0.338543   
C11      C      0.506780000000     0.759560000000     0.782830000000     0.347151   
C12      C      0.376240000000     0.886310000000     0.786150000000     0.341749   
C13      C      0.763610000000     0.993830000000     0.155050000000     0.341585   
C14      C      0.763860000000     0.143120000000     0.053530000000     0.341336   
C15      C      0.636260000000     0.015840000000     0.026990000000     0.347288   
C16      C      0.635670000000     0.118510000000     0.181530000000     0.339436   
C17      C      0.389980000000     0.375190000000     0.277080000000     0.340652   
C18      C      0.519180000000     0.250930000000     0.295600000000     0.347422   
C19      C      0.511890000000     0.389890000000     0.414160000000     0.348082   
C20      C      0.385930000000     0.269160000000     0.427110000000     0.342149   
C21      C      0.635390000000     0.646130000000     0.654160000000     0.339767   
C22      C      0.761890000000     0.518590000000     0.675940000000     0.347687   
C23      C      0.636780000000     0.500950000000     0.546330000000     0.342081   
C24      C      0.762510000000     0.624500000000     0.522740000000     0.349399   
C25      C      0.011800000000     0.752380000000     0.297850000000     0.341696   
C26      C      0.890480000000     0.883980000000     0.287910000000     0.347213   
C27      C      0.880960000000     0.761640000000     0.424010000000     0.339855   
C28      C      0.015950000000     0.885930000000     0.421500000000     0.348858   
C29      C      0.128340000000     0.148710000000     0.668720000000     0.351689   
C30      C      0.252510000000     0.018540000000     0.675000000000     0.348752   
C31      C      0.127630000000     0.021150000000     0.536460000000     0.34192    
C32      C      0.254840000000     0.145760000000     0.542390000000     0.351301   
C33      C      0.032630000000     0.987110000000     0.504710000000    -0.014532   
C34      C      0.128240000000     0.976840000000     0.456380000000    -0.0392561  
C35      C      0.017710000000     0.935420000000     0.497360000000    -0.01405    
C36      C      0.113200000000     0.924600000000     0.447470000000     0.0929218  
C37      C      0.877280000000     0.704320000000     0.494140000000    -0.0158123  
C38      C      0.782770000000     0.727890000000     0.448680000000    -0.0428546  
C39      C      0.858950000000     0.652850000000     0.488990000000    -0.0153125  
C40      C      0.766290000000     0.675910000000     0.443100000000     0.0935769  
C41      C      0.383880000000     0.216300000000     0.501090000000    -0.0151132  
C42      C      0.290140000000     0.255930000000     0.472190000000    -0.0398575  
C43      C      0.350760000000     0.169680000000     0.504680000000    -0.0127127  
C44      C      0.254630000000     0.209520000000     0.476830000000     0.0940378  
C45      C      0.638500000000     0.435050000000     0.485700000000    -0.0139937  
C46      C      0.543770000000     0.455580000000     0.531390000000    -0.0386078  
C47      C      0.604150000000     0.432890000000     0.435860000000    -0.0144685  
C48      C      0.508070000000     0.452690000000     0.481340000000     0.0924728  
C49      C      0.762530000000     0.926990000000     0.214400000000    -0.0144949  
C50      C      0.855960000000     0.946600000000     0.166930000000    -0.0393636  
C51      C      0.797760000000     0.924720000000     0.263680000000    -0.0137592  
C52      C      0.893750000000     0.941780000000     0.215920000000     0.0928977  
C53      C      0.539350000000     0.144520000000     0.218940000000    -0.0146015  
C54      C      0.635780000000     0.160350000000     0.263400000000    -0.0386705  
C55      C      0.520190000000     0.195420000000     0.225100000000    -0.0138451  
C56      C      0.616860000000     0.211880000000     0.272810000000     0.0919839  
C57      C      0.369570000000     0.935410000000     0.709590000000    -0.0154296  
C58      C      0.277070000000     0.916310000000     0.759440000000    -0.0404251  
C59      C      0.348620000000     0.986020000000     0.704450000000    -0.0134611  
C60      C      0.254340000000     0.967180000000     0.752690000000     0.0933861  
C61      C      0.636250000000     0.712740000000     0.713830000000    -0.0151642  
C62      C      0.543540000000     0.693900000000     0.664820000000    -0.0395839  
C63      C      0.599430000000     0.716980000000     0.762190000000    -0.0137086  
C64      C      0.504710000000     0.699620000000     0.712970000000     0.0929758  
C65      C      0.517080000000     0.938490000000     0.987800000000    -0.0156554  
C66      C      0.611270000000     0.916880000000     0.940900000000    -0.0400426  
C67      C      0.539540000000     0.988830000000     0.992270000000    -0.0137142  
C68      C      0.634230000000     0.967770000000     0.946600000000     0.0926237  
C69      C      0.102810000000     0.705120000000     0.281000000000    -0.0149884  
C70      C      0.008380000000     0.691470000000     0.231650000000    -0.0390707  
C71      C      0.139520000000     0.703560000000     0.232310000000    -0.013317   
C72      C      0.045420000000     0.689150000000     0.182270000000     0.0933217  
C73      C      0.371570000000     0.663210000000     0.007100000000    -0.0148429  
C74      C      0.284150000000     0.657990000000     0.948450000000    -0.0392867  
C75      C      0.379060000000     0.715110000000     0.994740000000    -0.0139057  
C76      C      0.290570000000     0.710440000000     0.935030000000     0.092927   
C77      C      0.389380000000     0.437700000000     0.212210000000    -0.0144948  
C78      C      0.294250000000     0.396540000000     0.235480000000    -0.0419524  
C79      C      0.358310000000     0.484840000000     0.220230000000    -0.0153363  
C80      C      0.262890000000     0.443900000000     0.243830000000     0.092963   
C81      C      0.001880000000     0.224310000000     0.705860000000    -0.014384   
C82      C      0.097200000000     0.263090000000     0.731750000000    -0.0391686  
C83      C      0.033210000000     0.176730000000     0.704780000000    -0.0135401  
C84      C      0.130920000000     0.215740000000     0.730400000000     0.0937001  
C85      C      0.763150000000     0.212790000000     0.998020000000    -0.0139317  
C86      C      0.858360000000     0.186830000000     0.039020000000    -0.0416529  
C87      C      0.795620000000     0.216850000000     0.947520000000    -0.0149685  
C88      C      0.892690000000     0.192560000000     0.988850000000     0.0928709  
C89      C      0.778280000000     0.437340000000     0.783920000000    -0.0143489  
C90      C      0.873140000000     0.482720000000     0.775730000000    -0.0387803  
C91      C      0.761140000000     0.448860000000     0.729580000000    -0.013903   
C92      C      0.857070000000     0.496710000000     0.720870000000     0.0924031  
C93      C      0.142810000000     0.437210000000     0.996310000000    -0.0131661  
C94      C      0.044580000000     0.478300000000     0.019760000000    -0.0381144  
C95      C      0.106840000000     0.418720000000     0.951380000000    -0.0065703  
C96      C      0.013420000000     0.431920000000     0.006400000000     0.094728   
Cd1      Cd     0.942530000000     0.328360000000     0.859030000000     0.51697    
Cd2      Cd     0.207810000000     0.574210000000     0.108870000000     0.518004   
Cd3      Cd     0.444810000000     0.823750000000     0.849630000000     0.516636   
Cd4      Cd     0.700060000000     0.068290000000     0.103830000000     0.514698   
Cd5      Cd     0.452670000000     0.320670000000     0.352040000000     0.516992   
Cd6      Cd     0.699260000000     0.573300000000     0.600690000000     0.51782    
Cd7      Cd     0.949980000000     0.821480000000     0.358090000000     0.517131   
Cd8      Cd     0.190510000000     0.081260000000     0.606490000000     0.519384   
H1       H      0.034140000000     0.915890000000     0.530920000000     0.0585845  
H2       H      0.013420000000     0.999040000000     0.541230000000     0.0627647  
H3       H      0.135000000000     0.904800000000     0.478720000000     0.0481716  
H4       H      0.177810000000     0.981150000000     0.458560000000     0.0816481  
H5       H      0.968020000000     0.931650000000     0.496360000000     0.0612788  
H6       H      0.010590000000     0.007360000000     0.474040000000     0.059029   
H7       H      0.112200000000     0.997930000000     0.423830000000     0.0784285  
H8       H      0.878980000000     0.638970000000     0.453570000000     0.0573633  
H9       H      0.927100000000     0.706870000000     0.493280000000     0.0626794  
H10      H      0.789440000000     0.664180000000     0.408020000000     0.0445358  
H11      H      0.765200000000     0.747660000000     0.415700000000     0.0768252  
H12      H      0.878850000000     0.632790000000     0.520760000000     0.0663681  
H13      H      0.861810000000     0.717090000000     0.531570000000     0.0597209  
H14      H      0.760870000000     0.742020000000     0.483170000000     0.074257   
H15      H      0.358220000000     0.150190000000     0.468920000000     0.0565471  
H16      H      0.431790000000     0.209570000000     0.491720000000     0.0623292  
H17      H      0.255060000000     0.193080000000     0.438730000000     0.0473945  
H18      H      0.270390000000     0.277450000000     0.441460000000     0.0852023  
H19      H      0.371550000000     0.148900000000     0.535530000000     0.0626086  
H20      H      0.382280000000     0.233480000000     0.538710000000     0.0623549  
H21      H      0.285790000000     0.276220000000     0.507770000000     0.0829999  
H22      H      0.607680000000     0.467660000000     0.417280000000     0.0597588  
H23      H      0.685420000000     0.446360000000     0.478130000000     0.0625564  
H24      H      0.507960000000     0.488680000000     0.465180000000     0.0494986  
H25      H      0.522610000000     0.481990000000     0.556520000000     0.0838146  
H26      H      0.626710000000     0.407070000000     0.410890000000     0.0654197  
H27      H      0.640130000000     0.399210000000     0.501930000000     0.058419   
H28      H      0.541810000000     0.421290000000     0.551070000000     0.0760909  
H29      H      0.795060000000     0.959520000000     0.282280000000     0.0566033  
H30      H      0.715750000000     0.938280000000     0.222610000000     0.0597065  
H31      H      0.898270000000     0.977720000000     0.231740000000     0.0482125  
H32      H      0.876990000000     0.973150000000     0.141900000000     0.0847134  
H33      H      0.775140000000     0.899110000000     0.288890000000     0.0618885  
H34      H      0.760620000000     0.891200000000     0.198040000000     0.0586067  
H35      H      0.856020000000     0.912810000000     0.146220000000     0.0801006  
H36      H      0.532440000000     0.214650000000     0.190100000000     0.055456   
H37      H      0.518890000000     0.130170000000     0.183950000000     0.0603127  
H38      H      0.637580000000     0.232990000000     0.242070000000     0.0465483  
H39      H      0.685470000000     0.158410000000     0.259750000000     0.0801567  
H40      H      0.470400000000     0.196340000000     0.228350000000     0.0606343  
H41      H      0.521430000000     0.124260000000     0.251450000000     0.0566491  
H42      H      0.622860000000     0.138560000000     0.296380000000     0.0754951  
H43      H      0.368680000000     0.006620000000     0.735800000000     0.0558141  
H44      H      0.419500000000     0.934790000000     0.710490000000     0.0615007  
H45      H      0.270410000000     0.987000000000     0.786280000000     0.046908   
H46      H      0.261340000000     0.902710000000     0.796460000000     0.085976   
H47      H      0.366850000000     0.000290000000     0.668570000000     0.0620404  
H48      H      0.354690000000     0.915750000000     0.675620000000     0.0621038  
H49      H      0.257370000000     0.893630000000     0.729680000000     0.082264   
H50      H      0.600720000000     0.682710000000     0.782010000000     0.0564583  
H51      H      0.682190000000     0.700410000000     0.723510000000     0.0627884  
H52      H      0.499900000000     0.664020000000     0.729590000000     0.0479986  
H53      H      0.522570000000     0.667390000000     0.639710000000     0.0847037  
H54      H      0.621740000000     0.743010000000     0.787080000000     0.0628896  
H55      H      0.640330000000     0.748110000000     0.696720000000     0.0585984  
H56      H      0.544730000000     0.727510000000     0.643770000000     0.0784987  
H57      H      0.521800000000     0.008950000000     0.959590000000     0.0543861  
H58      H      0.467230000000     0.938890000000     0.985100000000     0.0602521  
H59      H      0.618020000000     0.987020000000     0.912640000000     0.0450605  
H60      H      0.627910000000     0.902280000000     0.904630000000     0.0818926  
H61      H      0.520140000000     0.004560000000     0.026980000000     0.0609703  
H62      H      0.529430000000     0.919470000000     0.022880000000     0.0574909  
H63      H      0.629840000000     0.894900000000     0.971770000000     0.0769399  
H64      H      0.144660000000     0.739990000000     0.218220000000     0.0597703  
H65      H      0.125140000000     0.729180000000     0.308080000000     0.0654484  
H66      H      0.046870000000     0.725520000000     0.167150000000     0.0506627  
H67      H      0.963160000000     0.706080000000     0.223340000000     0.0829097  
H68      H      0.185200000000     0.690290000000     0.241370000000     0.0627533  
H69      H      0.102790000000     0.669520000000     0.297900000000     0.0602891  
H70      H      0.001920000000     0.655580000000     0.246830000000     0.0776329  
H71      H      0.355260000000     0.735680000000     0.024210000000     0.0560405  
H72      H      0.386760000000     0.656800000000     0.046440000000     0.0596709  
H73      H      0.260480000000     0.729920000000     0.961240000000     0.0490247  
H74      H      0.236190000000     0.647520000000     0.945460000000     0.0825753  
H75      H      0.427570000000     0.724010000000     0.997460000000     0.0597186  
H76      H      0.401180000000     0.642830000000     0.981430000000     0.0561016  
H77      H      0.309890000000     0.636610000000     0.920880000000     0.0763     
H78      H      0.366580000000     0.495960000000     0.259840000000     0.0580584  
H79      H      0.437930000000     0.441190000000     0.221290000000     0.0597567  
H80      H      0.270920000000     0.452970000000     0.284170000000     0.0485072  
H81      H      0.274250000000     0.369970000000     0.261110000000     0.0795102  
H82      H      0.380070000000     0.511210000000     0.195450000000     0.0618754  
H83      H      0.385430000000     0.428230000000     0.171660000000     0.0567494  
H84      H      0.285950000000     0.384910000000     0.196050000000     0.07467    
H85      H      0.024820000000     0.159040000000     0.741460000000     0.0601798  
H86      H      0.953770000000     0.219260000000     0.715740000000     0.0603906  
H87      H      0.129700000000     0.201540000000     0.769530000000     0.0503525  
H88      H      0.118080000000     0.286270000000     0.760480000000     0.0838756  
H89      H      0.011700000000     0.155120000000     0.674960000000     0.0640232  
H90      H      0.004020000000     0.239620000000     0.667330000000     0.0596703  
H91      H      0.101710000000     0.280770000000     0.694600000000     0.0794508  
H92      H      0.790220000000     0.183140000000     0.927080000000     0.0577758  
H93      H      0.715370000000     0.203410000000     0.991120000000     0.0592773  
H94      H      0.892010000000     0.157490000000     0.970510000000     0.0486122  
H95      H      0.879440000000     0.158180000000     0.061230000000     0.0791686  
H96      H      0.772480000000     0.244080000000     0.924780000000     0.0618311  
H97      H      0.764140000000     0.247570000000     0.016780000000     0.0584619  
H98      H      0.863090000000     0.219590000000     0.061310000000     0.0775282  
H99      H      0.774630000000     0.418940000000     0.705280000000     0.0556749  
H100     H      0.758850000000     0.402840000000     0.794300000000     0.0595507  
H101     H      0.880620000000     0.471500000000     0.695670000000     0.047659   
H102     H      0.922790000000     0.480770000000     0.779700000000     0.0806948  
H103     H      0.711360000000     0.451580000000     0.727610000000     0.0600202  
H104     H      0.758020000000     0.464250000000     0.809000000000     0.0561712  
H105     H      0.856980000000     0.510150000000     0.802180000000     0.0760868  
H106     H      0.107000000000     0.445650000000     0.921100000000     0.0572657  
H107     H      0.186450000000     0.450730000000     0.981920000000     0.0593284  
H108     H      0.967050000000     0.441970000000     0.994640000000     0.0480246  
H109     H      0.034790000000     0.504130000000     0.989470000000     0.0651563  
H110     H      0.130240000000     0.387400000000     0.936040000000     0.0646477  
H111     H      0.154150000000     0.408090000000     0.022290000000     0.07398    
H112     H      0.024490000000     0.492550000000     0.055010000000     0.0819054  
N1       N      0.047340000000     0.916280000000     0.451890000000    -0.15465    
N2       N      0.097880000000     0.994340000000     0.501850000000    -0.145879   
N3       N      0.138610000000     0.907530000000     0.399370000000    -0.0181597  
N4       N      0.792790000000     0.649090000000     0.486090000000    -0.152641   
N5       N      0.848360000000     0.732530000000     0.454400000000    -0.146535   
N6       N      0.701350000000     0.670200000000     0.433750000000    -0.0284206  
N7       N      0.285360000000     0.176330000000     0.511690000000    -0.154136   
N8       N      0.354270000000     0.246610000000     0.463980000000    -0.144811   
N9       N      0.191350000000     0.218140000000     0.490920000000    -0.0192314  
N10      N      0.539950000000     0.422220000000     0.444410000000    -0.154753   
N11      N      0.607230000000     0.466140000000     0.521200000000    -0.146225   
N12      N      0.444980000000     0.438710000000     0.489950000000    -0.0187362  
N13      N      0.861700000000     0.913340000000     0.254660000000    -0.154128   
N14      N      0.793260000000     0.958210000000     0.178840000000    -0.145845   
N15      N      0.954750000000     0.924090000000     0.205060000000    -0.0179999  
N16      N      0.550520000000     0.218050000000     0.268370000000    -0.154685   
N17      N      0.605110000000     0.141390000000     0.218860000000    -0.146942   
N18      N      0.640560000000     0.229290000000     0.321370000000    -0.017959   
N19      N      0.282470000000     0.989410000000     0.707720000000    -0.154937   
N20      N      0.342830000000     0.913810000000     0.754610000000    -0.144921   
N21      N      0.188030000000     0.969500000000     0.752110000000    -0.0189372  
N22      N      0.536060000000     0.728890000000     0.751340000000    -0.154528   
N23      N      0.605640000000     0.681610000000     0.678060000000    -0.145772   
N24      N      0.443920000000     0.717030000000     0.700740000000    -0.0173588  
N25      N      0.605840000000     0.990430000000     0.991130000000    -0.155926   
N26      N      0.545300000000     0.914930000000     0.944480000000    -0.146461   
N27      N      0.700550000000     0.970220000000     0.947050000000    -0.0192176  
N28      N      0.108630000000     0.675490000000     0.193330000000    -0.154869   
N29      N      0.040500000000     0.718890000000     0.270060000000    -0.145467   
N30      N      0.016320000000     0.659190000000     0.143980000000    -0.01834    
N31      N      0.352950000000     0.726970000000     0.945010000000    -0.155056   
N32      N      0.308980000000     0.648940000000     0.998830000000    -0.147084   
N33      N      0.270410000000     0.719970000000     0.882910000000    -0.0176292  
N34      N      0.292650000000     0.480670000000     0.212190000000    -0.152626   
N35      N      0.359390000000     0.401710000000     0.242750000000    -0.146555   
N36      N      0.197600000000     0.437490000000     0.237170000000    -0.0276458  
N37      N      0.098950000000     0.181370000000     0.697690000000    -0.153311   
N38      N      0.032970000000     0.255480000000     0.741200000000    -0.146043   
N39      N      0.194560000000     0.222050000000     0.716030000000    -0.0188631  
N40      N      0.860620000000     0.226010000000     0.954510000000    -0.151535   
N41      N      0.794110000000     0.178620000000     0.030090000000    -0.145891   
N42      N      0.955520000000     0.204260000000     0.001520000000    -0.0285866  
N43      N      0.791510000000     0.491560000000     0.710850000000    -0.154554   
N44      N      0.843760000000     0.438570000000     0.789440000000    -0.147164   
N45      N      0.879220000000     0.544140000000     0.708860000000    -0.0179613  
N46      N      0.043940000000     0.407600000000     0.964200000000    -0.15139    
N47      N      0.110300000000     0.473820000000     0.024250000000    -0.138778   
N48      N      0.008020000000     0.401840000000     0.051440000000    -0.0243752  
O1       O      0.931200000000     0.404580000000     0.817370000000    -0.24679    
O2       O      0.943500000000     0.262000000000     0.918110000000    -0.217104   
O3       O      0.955470000000     0.374270000000     0.936820000000    -0.232354   
O4       O      0.030730000000     0.304600000000     0.809770000000    -0.234417   
O5       O      0.947230000000     0.274660000000     0.785430000000    -0.24591    
O6       O      0.035410000000     0.361750000000     0.893250000000    -0.232205   
O7       O      0.849710000000     0.365230000000     0.825340000000    -0.240059   
O8       O      0.856590000000     0.287080000000     0.897490000000    -0.239933   
O9       O      0.198470000000     0.504170000000     0.055670000000    -0.241226   
O10      O      0.194650000000     0.633050000000     0.176610000000    -0.245536   
O11      O      0.223630000000     0.611870000000     0.026720000000    -0.244432   
O12      O      0.295160000000     0.537910000000     0.150750000000    -0.241423   
O13      O      0.208840000000     0.515550000000     0.176210000000    -0.216989   
O14      O      0.298350000000     0.615860000000     0.077630000000    -0.241314   
O15      O      0.115800000000     0.538980000000     0.074950000000    -0.224381   
O16      O      0.119030000000     0.621930000000     0.128490000000    -0.21789    
O17      O      0.456390000000     0.881430000000     0.918330000000    -0.244644   
O18      O      0.431870000000     0.879620000000     0.779290000000    -0.242375   
O19      O      0.436280000000     0.770570000000     0.923010000000    -0.24742    
O20      O      0.534410000000     0.783080000000     0.815990000000    -0.2389     
O21      O      0.450610000000     0.765730000000     0.781320000000    -0.221678   
O22      O      0.357860000000     0.777490000000     0.876970000000    -0.217394   
O23      O      0.537020000000     0.863100000000     0.878360000000    -0.237312   
O24      O      0.352980000000     0.865010000000     0.823150000000    -0.231887   
O25      O      0.789980000000     0.114810000000     0.082970000000    -0.234843   
O26      O      0.609060000000     0.100650000000     0.143970000000    -0.239219   
O27      O      0.789250000000     0.019910000000     0.123030000000    -0.232236   
O28      O      0.692230000000     0.023030000000     0.024940000000    -0.225802   
O29      O      0.609650000000     0.033880000000     0.064460000000    -0.240866   
O30      O      0.708760000000     0.002410000000     0.163460000000    -0.246085   
O31      O      0.708050000000     0.136780000000     0.047340000000    -0.24604    
O32      O      0.692170000000     0.113490000000     0.182800000000    -0.244071   
O33      O      0.462990000000     0.256210000000     0.290670000000    -0.247727   
O34      O      0.360880000000     0.297140000000     0.396710000000    -0.232259   
O35      O      0.445700000000     0.380440000000     0.284900000000    -0.24599    
O36      O      0.540840000000     0.364490000000     0.383460000000    -0.235017   
O37      O      0.455730000000     0.383580000000     0.414770000000    -0.226743   
O38      O      0.363980000000     0.344300000000     0.303360000000    -0.235346   
O39      O      0.544340000000     0.278460000000     0.326400000000    -0.220981   
O40      O      0.442100000000     0.264040000000     0.421990000000    -0.240737   
O41      O      0.706190000000     0.513920000000     0.667690000000    -0.247648   
O42      O      0.706010000000     0.622430000000     0.525010000000    -0.219629   
O43      O      0.690100000000     0.637270000000     0.662890000000    -0.242336   
O44      O      0.610510000000     0.526650000000     0.578400000000    -0.2338     
O45      O      0.692070000000     0.509050000000     0.539230000000    -0.242673   
O46      O      0.610100000000     0.620730000000     0.621370000000    -0.233096   
O47      O      0.788440000000     0.548790000000     0.649050000000    -0.220328   
O48      O      0.790030000000     0.602440000000     0.557160000000    -0.235496   
O49      O      0.946740000000     0.877730000000     0.287470000000    -0.222038   
O50      O      0.960080000000     0.879190000000     0.426920000000    -0.247144   
O51      O      0.957190000000     0.762630000000     0.290540000000    -0.241528   
O52      O      0.856540000000     0.785950000000     0.389790000000    -0.23796    
O53      O      0.937380000000     0.765550000000     0.428150000000    -0.244996   
O54      O      0.038030000000     0.774520000000     0.332830000000    -0.232548   
O55      O      0.862120000000     0.861670000000     0.321610000000    -0.239011   
O56      O      0.040740000000     0.862390000000     0.386910000000    -0.218031   
O57      O      0.197300000000     0.028010000000     0.679500000000    -0.225933   
O58      O      0.281950000000     0.117890000000     0.571780000000    -0.236171   
O59      O      0.100210000000     0.119910000000     0.641100000000    -0.234374   
O60      O      0.101070000000     0.039790000000     0.573590000000    -0.234827   
O61      O      0.183210000000     0.029610000000     0.532610000000    -0.244069   
O62      O      0.184970000000     0.145020000000     0.668130000000    -0.224799   
O63      O      0.278930000000     0.038360000000     0.638530000000    -0.239607   
O64      O      0.198120000000     0.142940000000     0.542640000000    -0.225592   
O65      O      0.121020000000     0.934950000000     0.361470000000    -0.0770933  
O66      O      0.198360000000     0.909360000000     0.401510000000    -0.0884944  
O67      O      0.668640000000     0.688500000000     0.470930000000    -0.0777648  
O68      O      0.687460000000     0.625150000000     0.428600000000    -0.0755081  
O69      O      0.188810000000     0.242890000000     0.533480000000    -0.0763347  
O70      O      0.164580000000     0.243070000000     0.454910000000    -0.0863551  
O71      O      0.442830000000     0.399820000000     0.517640000000    -0.0826011  
O72      O      0.416880000000     0.472220000000     0.515680000000    -0.0856154  
O73      O      0.951420000000     0.883670000000     0.180160000000    -0.0790007  
O74      O      0.983610000000     0.954490000000     0.175690000000    -0.0841075  
O75      O      0.621790000000     0.201970000000     0.358940000000    -0.0837868  
O76      O      0.700370000000     0.227800000000     0.320740000000    -0.0894031  
O77      O      0.166140000000     0.940080000000     0.717700000000    -0.0796497  
O78      O      0.166850000000     0.956290000000     0.796890000000    -0.0848852  
O79      O      0.447730000000     0.756690000000     0.674480000000    -0.0810555  
O80      O      0.415540000000     0.685790000000     0.672070000000    -0.0831962  
O81      O      0.722820000000     0.939740000000     0.980190000000    -0.0811087  
O82      O      0.721400000000     0.958430000000     0.901700000000    -0.0891831  
O83      O      0.002430000000     0.617750000000     0.163870000000    -0.0764389  
O84      O      0.965250000000     0.679150000000     0.129050000000    -0.0862503  
O85      O      0.299340000000     0.692210000000     0.850630000000    -0.0763418  
O86      O      0.211950000000     0.710670000000     0.878970000000    -0.0832059  
O87      O      0.183580000000     0.429800000000     0.189010000000    -0.0733152  
O88      O      0.167620000000     0.474730000000     0.253810000000    -0.0682867  
O89      O      0.198250000000     0.244590000000     0.672120000000    -0.0768618  
O90      O      0.222250000000     0.248050000000     0.750650000000    -0.0880866  
O91      O      0.961350000000     0.249340000000     0.013330000000    -0.0662645  
O92      O      0.992130000000     0.194040000000     0.963350000000    -0.0686678  
O93      O      0.856240000000     0.575040000000     0.741180000000    -0.0823987  
O94      O      0.938790000000     0.545360000000     0.713550000000    -0.0871554  
O95      O      0.059250000000     0.379140000000     0.059790000000    -0.074818   
O96      O      0.965730000000     0.369760000000     0.043400000000    -0.0679343  


