data_structure

_audit_creation_method RASPA-1.0
_audit_creation_date 2023-5-22
_audit_author_name 'Poobodin Mano'

_cell_length_a    25.331
_cell_length_b    25.3305
_cell_length_c    25.8056
_cell_angle_alpha 90
_cell_angle_beta  90
_cell_angle_gamma 90
_cell_volume      16558.1

_symmetry_cell_setting          triclinic
_symmetry_space_group_name_Hall 'P 1'
_symmetry_space_group_name_H-M  'P 1'
_symmetry_Int_Tables_number     1

_symmetry_equiv_pos_as_xyz 'x,y,z'

loop_
_atom_site_label
_atom_site_type_symbol
_atom_site_fract_x
_atom_site_fract_y
_atom_site_fract_z
_atom_site_charge
C1       C      0.902510000000     0.448740000000     0.923260000000     0.341691   
C2       C      0.801140000000     0.288700000000     0.907290000000     0.313833   
C3       C      0.778940000000     0.440520000000     0.791930000000     0.340537   
C4       C      0.923260000000     0.330190000000     0.780820000000     0.341185   
C5       C      0.170010000000     0.550360000000     0.179240000000     0.346802   
C6       C      0.025560000000     0.681970000000     0.167060000000     0.3396     
C7       C      0.168170000000     0.679610000000     0.052900000000     0.345489   
C8       C      0.042480000000     0.540870000000     0.049900000000     0.338932   
C9       C      0.433060000000     0.950310000000     0.944030000000     0.309156   
C10      C      0.294290000000     0.818750000000     0.937930000000     0.345253   
C11      C      0.298480000000     0.972390000000     0.828760000000     0.34169    
C12      C      0.417430000000     0.822410000000     0.811750000000     0.348548   
C13      C      0.697830000000     0.175920000000     0.053780000000     0.341989   
C14      C      0.578920000000     0.027440000000     0.073630000000     0.343492   
C15      C      0.720490000000     0.053320000000     0.187480000000     0.341475   
C16      C      0.571730000000     0.173450000000     0.183100000000     0.343618   
C17      C      0.309700000000     0.319550000000     0.399300000000     0.342006   
C18      C      0.465770000000     0.320540000000     0.293730000000     0.31604    
C19      C      0.328870000000     0.451470000000     0.276130000000     0.342451   
C20      C      0.455300000000     0.441340000000     0.416370000000     0.339789   
C21      C      0.645210000000     0.547900000000     0.673730000000     0.340961   
C22      C      0.544950000000     0.703210000000     0.678960000000     0.347092   
C23      C      0.689990000000     0.709060000000     0.578160000000     0.343937   
C24      C      0.545100000000     0.587670000000     0.535060000000     0.346153   
C25      C      0.834360000000     0.827570000000     0.476420000000     0.341647   
C26      C      0.817940000000     0.932010000000     0.329470000000     0.341535   
C27      C      0.979400000000     0.933000000000     0.433240000000     0.342012   
C28      C      0.942440000000     0.801280000000     0.317630000000     0.340345   
C29      C      0.064700000000     0.230380000000     0.655700000000     0.344747   
C30      C      0.190090000000     0.104220000000     0.699080000000     0.342095   
C31      C      0.077090000000     0.076030000000     0.552040000000     0.344337   
C32      C      0.209770000000     0.205080000000     0.545800000000     0.342822   
C33      C      0.036440000000     0.987460000000     0.542990000000    -0.0135739  
C34      C      0.028030000000     0.055540000000     0.471600000000    -0.00969682 
C35      C      0.046360000000     0.945030000000     0.501600000000    -0.0159014  
C36      C      0.041230000000     0.012290000000     0.432290000000    -0.0198092  
C37      C      0.824940000000     0.759790000000     0.544990000000    -0.0105335  
C38      C      0.763570000000     0.835460000000     0.542130000000    -0.00897224 
C39      C      0.779770000000     0.720230000000     0.547260000000    -0.0160879  
C40      C      0.714890000000     0.799380000000     0.548740000000    -0.020695   
C41      C      0.236950000000     0.312890000000     0.462940000000    -0.0133742  
C42      C      0.274550000000     0.231200000000     0.422820000000    -0.0114729  
C43      C      0.246760000000     0.289800000000     0.516750000000    -0.0152556  
C44      C      0.283120000000     0.207480000000     0.477170000000    -0.0193233  
C45      C      0.465670000000     0.535300000000     0.513550000000    -0.0124431  
C46      C      0.534870000000     0.552340000000     0.445920000000    -0.0078123  
C47      C      0.470800000000     0.475870000000     0.504050000000    -0.0161446  
C48      C      0.539490000000     0.492560000000     0.437110000000    -0.0225905  
C49      C      0.757850000000     0.938100000000     0.253820000000    -0.0135547  
C50      C      0.774080000000     0.017350000000     0.310180000000    -0.00999983 
C51      C      0.769960000000     0.971630000000     0.205790000000    -0.016021   
C52      C      0.787460000000     0.049680000000     0.261630000000    -0.0200322  
C53      C      0.510050000000     0.249180000000     0.184180000000    -0.0128769  
C54      C      0.525110000000     0.195520000000     0.264840000000    -0.0082054  
C55      C      0.517860000000     0.299930000000     0.215240000000    -0.0151712  
C56      C      0.532340000000     0.246780000000     0.295860000000    -0.0227625  
C57      C      0.273410000000     0.090960000000     0.746900000000    -0.011      
C58      C      0.188340000000     0.067060000000     0.787770000000    -0.00916542 
C59      C      0.297420000000     0.037890000000     0.760360000000    -0.0157334  
C60      C      0.211590000000     0.015010000000     0.809390000000    -0.0208888  
C61      C      0.438030000000     0.794610000000     0.722920000000    -0.0137613  
C62      C      0.486060000000     0.754560000000     0.800330000000    -0.00531416 
C63      C      0.459450000000     0.746080000000     0.694450000000    -0.00990185 
C64      C      0.532530000000     0.747960000000     0.762750000000    -0.0217467  
C65      C      0.562250000000     0.971110000000     0.996950000000    -0.0119205  
C66      C      0.495270000000     0.976910000000     0.067670000000    -0.00757427 
C67      C      0.521370000000     0.989650000000     0.957310000000    -0.017217   
C68      C      0.453500000000     0.995470000000     0.028530000000    -0.025617   
C69      C      0.010920000000     0.786960000000     0.250730000000    -0.014197   
C70      C      0.950110000000     0.712590000000     0.277380000000    -0.0104811  
C71      C      0.001960000000     0.772120000000     0.193870000000    -0.0157772  
C72      C      0.942110000000     0.699560000000     0.219830000000    -0.0205925  
C73      C      0.181390000000     0.731130000000     0.973190000000    -0.0137905  
C74      C      0.252590000000     0.726840000000     0.042800000000    -0.0055413  
C75      C      0.227310000000     0.748370000000     0.938390000000    -0.0102324  
C76      C      0.268920000000     0.781520000000     0.022490000000    -0.0180483  
C77      C      0.224140000000     0.539470000000     0.258740000000    -0.0137991  
C78      C      0.222760000000     0.468760000000     0.190090000000    -0.00959576 
C79      C      0.284760000000     0.536590000000     0.259570000000    -0.0158252  
C80      C      0.283180000000     0.469040000000     0.189870000000    -0.0199128  
C81      C      0.050320000000     0.308050000000     0.711970000000    -0.0107496  
C82      C      0.979010000000     0.277060000000     0.653890000000    -0.00966591 
C83      C      0.013710000000     0.307890000000     0.758570000000    -0.0159839  
C84      C      0.937440000000     0.281620000000     0.697470000000    -0.0201009  
C85      C      0.694240000000     0.237990000000     0.979800000000    -0.0134207  
C86      C      0.779750000000     0.222130000000     0.027180000000    -0.00892188 
C87      C      0.723330000000     0.233490000000     0.928070000000    -0.0153735  
C88      C      0.808340000000     0.217490000000     0.974870000000    -0.0235123  
C89      C      0.708480000000     0.508050000000     0.784680000000    -0.0146005  
C90      C      0.749240000000     0.466840000000     0.704460000000    -0.0120236  
C91      C      0.654110000000     0.504090000000     0.758550000000    -0.0149696  
C92      C      0.693690000000     0.460540000000     0.682240000000    -0.0186716  
C93      C      0.967420000000     0.520490000000     0.937560000000    -0.0134149  
C94      C      0.923750000000     0.475970000000     0.013200000000    -0.0103947  
C95      C      0.021570000000     0.509680000000     0.961880000000    -0.015985   
C96      C      0.978390000000     0.464230000000     0.036100000000    -0.0191647  
Cd1      Cd     0.850170000000     0.377030000000     0.853080000000     0.510701   
Cd2      Cd     0.100730000000     0.613420000000     0.114970000000     0.517057   
Cd3      Cd     0.359440000000     0.890880000000     0.879910000000     0.512447   
Cd4      Cd     0.642320000000     0.106660000000     0.124570000000     0.515112   
Cd5      Cd     0.387000000000     0.384020000000     0.346550000000     0.51325    
Cd6      Cd     0.608680000000     0.637300000000     0.614000000000     0.519281   
Cd7      Cd     0.892680000000     0.872320000000     0.390460000000     0.514562   
Cd8      Cd     0.135130000000     0.152110000000     0.613140000000     0.515631   
H1       H      0.089730000000     0.941470000000     0.495780000000     0.055039   
H2       H      0.059530000000     0.977430000000     0.578270000000     0.0588039  
H3       H      0.085110000000     0.010120000000     0.430840000000     0.061407   
H4       H      0.044030000000     0.093910000000     0.457750000000     0.0722339  
H5       H      0.031860000000     0.906370000000     0.516190000000     0.0586812  
H6       H      0.993900000000     0.986390000000     0.553560000000     0.0567848  
H7       H      0.984390000000     0.059310000000     0.474450000000     0.0676524  
H8       H      0.065390000000     0.969590000000     0.328390000000     0.159257   
H9       H      0.775120000000     0.702210000000     0.508210000000     0.0633659  
H10      H      0.859700000000     0.740950000000     0.526290000000     0.060047   
H11      H      0.693580000000     0.798510000000     0.511080000000     0.0610179  
H12      H      0.751860000000     0.871180000000     0.519850000000     0.0651598  
H13      H      0.791510000000     0.687880000000     0.574050000000     0.0638576  
H14      H      0.836180000000     0.770270000000     0.585380000000     0.0538765  
H15      H      0.777140000000     0.848970000000     0.580970000000     0.0620272  
H16      H      0.604470000000     0.844100000000     0.545600000000     0.159097   
H17      H      0.286740000000     0.302310000000     0.529700000000     0.0539884  
H18      H      0.239990000000     0.356620000000     0.464810000000     0.058882   
H19      H      0.323460000000     0.219640000000     0.489360000000     0.058197   
H20      H      0.305300000000     0.216390000000     0.395720000000     0.0738923  
H21      H      0.217830000000     0.307290000000     0.544180000000     0.0592319  
H22      H      0.196000000000     0.302710000000     0.451020000000     0.0590615  
H23      H      0.235480000000     0.217850000000     0.408120000000     0.0669313  
H24      H      0.336290000000     0.123440000000     0.538280000000     0.158287   
H25      H      0.501000000000     0.459900000000     0.531150000000     0.0552873  
H26      H      0.454330000000     0.542300000000     0.554580000000     0.0574921  
H27      H      0.569250000000     0.478320000000     0.465620000000     0.064836   
H28      H      0.573560000000     0.571720000000     0.438700000000     0.0699647  
H29      H      0.432560000000     0.456580000000     0.513370000000     0.0574558  
H30      H      0.433290000000     0.550610000000     0.488620000000     0.0550173  
H31      H      0.505780000000     0.568600000000     0.417860000000     0.0633131  
H32      H      0.586080000000     0.396690000000     0.392010000000     0.159092   
H33      H      0.812710000000     0.967540000000     0.196810000000     0.0560641  
H34      H      0.769980000000     0.896620000000     0.246380000000     0.0588446  
H35      H      0.830310000000     0.043290000000     0.254350000000     0.0629777  
H36      H      0.797220000000     0.032110000000     0.343800000000     0.0739507  
H37      H      0.747640000000     0.955410000000     0.172310000000     0.0597649  
H38      H      0.714420000000     0.938450000000     0.260150000000     0.0570709  
H39      H      0.731470000000     0.022760000000     0.319150000000     0.0655766  
H40      H      0.829880000000     0.145210000000     0.210560000000     0.163152   
H41      H      0.560230000000     0.311200000000     0.212850000000     0.0616267  
H42      H      0.523690000000     0.255790000000     0.143760000000     0.0615946  
H43      H      0.575250000000     0.256130000000     0.295860000000     0.0699826  
H44      H      0.550060000000     0.163940000000     0.282040000000     0.070709   
H45      H      0.494440000000     0.332160000000     0.197190000000     0.0680225  
H46      H      0.467080000000     0.240320000000     0.182840000000     0.0627189  
H47      H      0.483150000000     0.182880000000     0.267570000000     0.0679029  
H48      H      0.500590000000     0.318450000000     0.400420000000     0.164162   
H49      H      0.295280000000     0.012020000000     0.725580000000     0.0603122  
H50      H      0.292590000000     0.106420000000     0.711240000000     0.0590776  
H51      H      0.193880000000     0.981960000000     0.786980000000     0.0580051  
H52      H      0.145450000000     0.061360000000     0.780400000000     0.0638542  
H53      H      0.339990000000     0.044440000000     0.768840000000     0.0610607  
H54      H      0.281990000000     0.118960000000     0.779040000000     0.0538105  
H55      H      0.192190000000     0.098640000000     0.817530000000     0.0619985  
H56      H      0.144170000000     0.936400000000     0.866880000000     0.156961   
H57      H      0.433420000000     0.711760000000     0.702750000000     0.0525596  
H58      H      0.395360000000     0.799080000000     0.713670000000     0.0566066  
H59      H      0.558490000000     0.716550000000     0.778870000000     0.0597483  
H60      H      0.467260000000     0.715350000000     0.806240000000     0.0499387  
H61      H      0.457520000000     0.753500000000     0.651990000000     0.0622332  
H62      H      0.458210000000     0.830570000000     0.708230000000     0.0710301  
H63      H      0.500950000000     0.767480000000     0.838860000000     0.0603534  
H64      H      0.636580000000     0.782500000000     0.807280000000     0.155404   
H65      H      0.525150000000     0.033180000000     0.953120000000     0.0568815  
H66      H      0.602280000000     0.983690000000     0.984340000000     0.0592869  
H67      H      0.453850000000     0.039380000000     0.028690000000     0.0642683  
H68      H      0.486710000000     0.993970000000     0.106470000000     0.0657065  
H69      H      0.530630000000     0.971710000000     0.919070000000     0.0644084  
H70      H      0.561560000000     0.927220000000     0.997970000000     0.0560009  
H71      H      0.493340000000     0.933170000000     0.070890000000     0.0627133  
H72      H      0.331800000000     0.989470000000     0.981000000000     0.174838   
H73      H      0.967700000000     0.795140000000     0.179150000000     0.0545734  
H74      H      0.016980000000     0.830330000000     0.253400000000     0.0628735  
H75      H      0.909010000000     0.725110000000     0.206550000000     0.0564387  
H76      H      0.913290000000     0.703810000000     0.299200000000     0.0690875  
H77      H      0.037110000000     0.784010000000     0.170890000000     0.0646606  
H78      H      0.047770000000     0.767420000000     0.264170000000     0.0588073  
H79      H      0.981970000000     0.686910000000     0.292970000000     0.0655282  
H80      H      0.892700000000     0.642760000000     0.131840000000     0.15447    
H81      H      0.249650000000     0.712800000000     0.925900000000     0.0517891  
H82      H      0.158120000000     0.700300000000     0.952640000000     0.0561665  
H83      H      0.310790000000     0.787880000000     0.033970000000     0.0706148  
H84      H      0.281720000000     0.697270000000     0.028790000000     0.0516333  
H85      H      0.210950000000     0.767130000000     0.902880000000     0.0599799  
H86      H      0.154520000000     0.765180000000     0.979620000000     0.0693061  
H87      H      0.254730000000     0.726320000000     0.085860000000     0.0654917  
H88      H      0.250590000000     0.908000000000     0.087900000000     0.1783     
H89      H      0.300320000000     0.566830000000     0.232300000000     0.0548505  
H90      H      0.211580000000     0.580540000000     0.267540000000     0.0600755  
H91      H      0.295030000000     0.501090000000     0.162740000000     0.057046   
H92      H      0.207720000000     0.458790000000     0.150810000000     0.0689748  
H93      H      0.298910000000     0.546980000000     0.299050000000     0.0597093  
H94      H      0.208760000000     0.513450000000     0.289980000000     0.0580087  
H95      H      0.208970000000     0.437640000000     0.217320000000     0.0666906  
H96      H      0.388790000000     0.438480000000     0.151140000000     0.156746   
H97      H      0.020240000000     0.270740000000     0.780630000000     0.0560932  
H98      H      0.091450000000     0.300850000000     0.725230000000     0.057148   
H99      H      0.927130000000     0.240930000000     0.710040000000     0.0575073  
H100     H      0.966980000000     0.245090000000     0.626810000000     0.0667306  
H101     H      0.025590000000     0.341050000000     0.784310000000     0.0588782  
H102     H      0.048890000000     0.347880000000     0.693850000000     0.0541349  
H103     H      0.979790000000     0.314540000000     0.631350000000     0.0635868  
H104     H      0.824450000000     0.246510000000     0.684330000000     0.158819   
H105     H      0.720900000000     0.191740000000     0.914950000000     0.0543527  
H106     H      0.653220000000     0.223270000000     0.974790000000     0.0587304  
H107     H      0.808000000000     0.175080000000     0.963690000000     0.0623019  
H108     H      0.799340000000     0.195920000000     0.055920000000     0.0680522  
H109     H      0.703010000000     0.258230000000     0.898610000000     0.0589694  
H110     H      0.691950000000     0.280470000000     0.990420000000     0.0577431  
H111     H      0.783020000000     0.263480000000     0.041320000000     0.0681295  
H112     H      0.909910000000     0.253590000000     0.900010000000     0.161609   
H113     H      0.635660000000     0.466130000000     0.770460000000     0.0511642  
H114     H      0.703650000000     0.502130000000     0.827100000000     0.0580189  
H115     H      0.677860000000     0.423100000000     0.698680000000     0.05797    
H116     H      0.774350000000     0.433500000000     0.691090000000     0.0792115  
H117     H      0.628430000000     0.536480000000     0.772980000000     0.0573518  
H118     H      0.723870000000     0.548680000000     0.778550000000     0.0571822  
H119     H      0.766720000000     0.504070000000     0.689390000000     0.0680937  
H120     H      0.612740000000     0.428160000000     0.605440000000     0.153816   
H121     H      0.036520000000     0.471500000000     0.946430000000     0.055104   
H122     H      0.971220000000     0.520470000000     0.894650000000     0.0583931  
H123     H      0.991210000000     0.426190000000     0.018530000000     0.0605972  
H124     H      0.895450000000     0.444400000000     0.024340000000     0.0719549  
H125     H      0.049450000000     0.541060000000     0.949360000000     0.0589225  
H126     H      0.954490000000     0.560600000000     0.949670000000     0.0550229  
H127     H      0.909240000000     0.513890000000     0.029610000000     0.0654318  
H128     H      0.049770000000     0.412280000000     0.111010000000     0.16055    
N1       N      0.021320000000     0.961160000000     0.452500000000    -0.146159   
N2       N      0.049120000000     0.040630000000     0.522930000000    -0.14905    
N3       N      0.728540000000     0.743750000000     0.562680000000    -0.142133   
N4       N      0.807490000000     0.807310000000     0.517840000000    -0.150029   
N5       N      0.244830000000     0.231450000000     0.514390000000    -0.145335   
N6       N      0.274360000000     0.289240000000     0.426080000000    -0.149123   
N7       N      0.488200000000     0.467100000000     0.450140000000    -0.146928   
N8       N      0.515430000000     0.561630000000     0.499000000000    -0.150448   
N9       N      0.757970000000     0.027670000000     0.216610000000    -0.144985   
N10      N      0.783980000000     0.960990000000     0.299650000000    -0.148956   
N11      N      0.503970000000     0.290620000000     0.269900000000    -0.137041   
N12      N      0.537580000000     0.205070000000     0.209850000000    -0.14888    
N13      N      0.270210000000     0.011070000000     0.803830000000    -0.143317   
N14      N      0.216310000000     0.085110000000     0.741380000000    -0.150333   
N15      N      0.513700000000     0.732910000000     0.710690000000    -0.143943   
N16      N      0.446080000000     0.790980000000     0.779340000000    -0.148806   
N17      N      0.467520000000     0.977240000000     0.975590000000    -0.13917    
N18      N      0.547890000000     0.991650000000     0.048340000000    -0.151359   
N19      N      0.990130000000     0.715240000000     0.190580000000    -0.145689   
N20      N      0.966460000000     0.768290000000     0.282930000000    -0.149606   
N21      N      0.263710000000     0.784380000000     0.965590000000    -0.144806   
N22      N      0.199920000000     0.711530000000     0.023780000000    -0.147648   
N23      N      0.302100000000     0.483730000000     0.242440000000    -0.146028   
N24      N      0.203700000000     0.520530000000     0.208500000000    -0.149528   
N25      N      0.957230000000     0.310860000000     0.743990000000    -0.143754   
N26      N      0.032070000000     0.268670000000     0.674650000000    -0.15102    
N27      N      0.779220000000     0.247800000000     0.934920000000    -0.140703   
N28      N      0.723290000000     0.209560000000     0.020730000000    -0.149606   
N29      N      0.660900000000     0.504700000000     0.701800000000    -0.147367   
N30      N      0.746100000000     0.470120000000     0.761600000000    -0.148817   
N31      N      0.016070000000     0.505760000000     0.018760000000    -0.145081   
N32      N      0.928820000000     0.481460000000     0.956540000000    -0.150103   
O1       O      0.849930000000     0.299930000000     0.908780000000    -0.17759    
O2       O      0.874290000000     0.321140000000     0.779600000000    -0.228749   
O3       O      0.870990000000     0.413560000000     0.939260000000    -0.239762   
O4       O      0.777810000000     0.442450000000     0.840980000000    -0.244271   
O5       O      0.812460000000     0.409520000000     0.772340000000    -0.230001   
O6       O      0.909070000000     0.451190000000     0.874690000000    -0.242832   
O7       O      0.773460000000     0.319820000000     0.880120000000    -0.235687   
O8       O      0.939100000000     0.358390000000     0.818300000000    -0.243604   
O9       O      0.063470000000     0.699490000000     0.140280000000    -0.242441   
O10      O      0.077540000000     0.571460000000     0.031950000000    -0.240454   
O11      O      0.152380000000     0.594430000000     0.194650000000    -0.240893   
O12      O      0.183340000000     0.660570000000     0.095810000000    -0.243048   
O13      O      0.121840000000     0.667620000000     0.038560000000    -0.237337   
O14      O      0.155120000000     0.535750000000     0.134740000000    -0.242578   
O15      O      0.023400000000     0.632390000000     0.170990000000    -0.217271   
O16      O      0.033510000000     0.545400000000     0.097790000000    -0.213876   
O17      O      0.326020000000     0.850220000000     0.959940000000    -0.227648   
O18      O      0.384200000000     0.855440000000     0.794680000000    -0.244056   
O19      O      0.385210000000     0.941340000000     0.955920000000    -0.169949   
O20      O      0.277030000000     0.937820000000     0.857050000000    -0.228705   
O21      O      0.347950000000     0.968250000000     0.823640000000    -0.244488   
O22      O      0.447570000000     0.930320000000     0.901390000000    -0.228991   
O23      O      0.292580000000     0.820810000000     0.888910000000    -0.242658   
O24      O      0.423030000000     0.820550000000     0.860460000000    -0.244886   
O25      O      0.622110000000     0.043590000000     0.054750000000    -0.245099   
O26      O      0.594120000000     0.134010000000     0.203760000000    -0.232504   
O27      O      0.649500000000     0.164750000000     0.048390000000    -0.241699   
O28      O      0.699710000000     0.031930000000     0.148060000000    -0.244922   
O29      O      0.704020000000     0.099150000000     0.197960000000    -0.218218   
O30      O      0.720970000000     0.154540000000     0.091850000000    -0.238355   
O31      O      0.565550000000     0.047300000000     0.116660000000    -0.245482   
O32      O      0.582570000000     0.181820000000     0.135990000000    -0.24348    
O33      O      0.453810000000     0.315640000000     0.341290000000    -0.171395   
O34      O      0.462130000000     0.441600000000     0.367970000000    -0.227933   
O35      O      0.343380000000     0.299600000000     0.368820000000    -0.235505   
O36      O      0.334870000000     0.402660000000     0.268300000000    -0.223005   
O37      O      0.348660000000     0.468890000000     0.317810000000    -0.243619   
O38      O      0.311290000000     0.369200000000     0.404350000000    -0.245389   
O39      O      0.438680000000     0.354340000000     0.269170000000    -0.218043   
O40      O      0.415260000000     0.416100000000     0.432070000000    -0.24825    
O41      O      0.591220000000     0.689520000000     0.692060000000    -0.230421   
O42      O      0.589170000000     0.608490000000     0.524130000000    -0.238415   
O43      O      0.616980000000     0.583820000000     0.693470000000    -0.24446    
O44      O      0.700770000000     0.662970000000     0.593970000000    -0.236407   
O45      O      0.641510000000     0.720700000000     0.577050000000    -0.228063   
O46      O      0.658110000000     0.554900000000     0.627000000000    -0.224621   
O47      O      0.528830000000     0.687110000000     0.635230000000    -0.237562   
O48      O      0.530600000000     0.591110000000     0.581780000000    -0.24557    
O49      O      0.827590000000     0.883870000000     0.320090000000    -0.244884   
O50      O      0.957430000000     0.848500000000     0.323720000000    -0.24186    
O51      O      0.821520000000     0.871000000000     0.455730000000    -0.245019   
O52      O      0.950770000000     0.949690000000     0.396790000000    -0.220557   
O53      O      0.966600000000     0.888380000000     0.451410000000    -0.246441   
O54      O      0.874010000000     0.804470000000     0.457030000000    -0.23993    
O55      O      0.842190000000     0.952010000000     0.367610000000    -0.230175   
O56      O      0.903980000000     0.786540000000     0.345460000000    -0.237911   
O57      O      0.140180000000     0.105710000000     0.697050000000    -0.242412   
O58      O      0.206210000000     0.155400000000     0.547490000000    -0.220513   
O59      O      0.111810000000     0.225510000000     0.671170000000    -0.245528   
O60      O      0.094920000000     0.064580000000     0.596490000000    -0.242768   
O61      O      0.086440000000     0.122340000000     0.536160000000    -0.236814   
O62      O      0.049900000000     0.198380000000     0.620960000000    -0.243728   
O63      O      0.214340000000     0.123130000000     0.660400000000    -0.241698   
O64      O      0.178520000000     0.229670000000     0.575500000000    -0.245695   
O65      O      0.060630000000     0.079080000000     0.347230000000    -0.153846   
O66      O      0.959940000000     0.052640000000     0.367270000000    -0.133169   
O67      O      0.027580000000     0.979400000000     0.326870000000    -0.24126    
O68      O      0.683810000000     0.894230000000     0.600580000000    -0.160045   
O69      O      0.680040000000     0.802840000000     0.653370000000    -0.1277     
O70      O      0.607990000000     0.822740000000     0.577560000000    -0.235331   
O71      O      0.330620000000     0.118940000000     0.430060000000    -0.154461   
O72      O      0.227230000000     0.113360000000     0.452640000000    -0.138128   
O73      O      0.300620000000     0.109640000000     0.530320000000    -0.240533   
O74      O      0.629930000000     0.498130000000     0.373980000000    -0.151853   
O75      O      0.535280000000     0.509870000000     0.328340000000    -0.13898    
O76      O      0.566390000000     0.412750000000     0.362840000000    -0.247926   
O77      O      0.824800000000     0.136410000000     0.319170000000    -0.148488   
O78      O      0.721310000000     0.133160000000     0.296530000000    -0.133715   
O79      O      0.793290000000     0.154610000000     0.220430000000    -0.236971   
O80      O      0.564310000000     0.229480000000     0.399620000000    -0.158058   
O81      O      0.469530000000     0.189870000000     0.369250000000    -0.148825   
O82      O      0.483850000000     0.295500000000     0.375370000000    -0.218033   
O83      O      0.135380000000     0.043690000000     0.886070000000    -0.163255   
O84      O      0.235900000000     0.028890000000     0.916120000000    -0.145668   
O85      O      0.175160000000     0.944620000000     0.888830000000    -0.23656    
O86      O      0.552070000000     0.851640000000     0.801640000000    -0.159371   
O87      O      0.566960000000     0.833070000000     0.699980000000    -0.131786   
O88      O      0.635280000000     0.791990000000     0.770070000000    -0.241338   
O89      O      0.358450000000     0.021540000000     0.080470000000    -0.158797   
O90      O      0.389850000000     0.918880000000     0.080680000000    -0.14573    
O91      O      0.359550000000     0.965330000000     0.991040000000    -0.216278   
O92      O      0.857820000000     0.628620000000     0.234030000000    -0.15567    
O93      O      0.956480000000     0.590660000000     0.242920000000    -0.126769   
O94      O      0.917720000000     0.617390000000     0.147630000000    -0.233701   
O95      O      0.191450000000     0.809670000000     0.097720000000    -0.157994   
O96      O      0.194970000000     0.864060000000     0.007800000000    -0.148383   
O97      O      0.272790000000     0.877080000000     0.079160000000    -0.248813   
O98      O      0.295760000000     0.409240000000     0.098790000000    -0.163133   
O99      O      0.281630000000     0.356760000000     0.188220000000    -0.136374   
O100     O      0.375240000000     0.406700000000     0.169100000000    -0.240472   
O101     O      0.876880000000     0.299300000000     0.605640000000    -0.157578   
O102     O      0.878420000000     0.375160000000     0.678330000000    -0.13825    
O103     O      0.824010000000     0.283950000000     0.695380000000    -0.238782   
O104     O      0.915150000000     0.185800000000     0.984220000000    -0.161569   
O105     O      0.885910000000     0.278230000000     0.029320000000    -0.146933   
O106     O      0.885920000000     0.269110000000     0.924870000000    -0.218124   
O107     O      0.716710000000     0.389590000000     0.601420000000    -0.151511   
O108     O      0.735100000000     0.492670000000     0.584720000000    -0.133045   
O109     O      0.633770000000     0.455980000000     0.588080000000    -0.248621   
O110     O      0.939790000000     0.396120000000     0.113490000000    -0.148204   
O111     O      0.943310000000     0.499880000000     0.134800000000    -0.118876   
O112     O      0.034640000000     0.442630000000     0.130120000000    -0.236611   
S1       S      0.021640000000     0.030880000000     0.367620000000     0.290757   
S2       S      0.671330000000     0.830170000000     0.595680000000     0.290364   
S3       S      0.284950000000     0.136420000000     0.472690000000     0.290046   
S4       S      0.567700000000     0.478070000000     0.374560000000     0.291813   
S5       S      0.781150000000     0.119390000000     0.274390000000     0.292248   
S6       S      0.512300000000     0.238780000000     0.361820000000     0.291679   
S7       S      0.189350000000     0.008140000000     0.875880000000     0.289373   
S8       S      0.571720000000     0.807110000000     0.758710000000     0.294224   
S9       S      0.388870000000     0.974650000000     0.047170000000     0.293756   
S10      S      0.918690000000     0.633000000000     0.210970000000     0.291962   
S11      S      0.231010000000     0.833460000000     0.052200000000     0.295862   
S12      S      0.309340000000     0.409440000000     0.161570000000     0.289154   
S13      S      0.878590000000     0.310470000000     0.668930000000     0.290112   
S14      S      0.875760000000     0.237800000000     0.979850000000     0.288543   
S15      S      0.694790000000     0.450030000000     0.613130000000     0.290357   
S16      S      0.974110000000     0.451050000000     0.104630000000     0.290921   


