data_structure

_audit_creation_method RASPA-1.0
_audit_creation_date 2023-5-22
_audit_author_name 'Poobodin Mano'

_cell_length_a    27.402
_cell_length_b    21.6269
_cell_length_c    27.5232
_cell_angle_alpha 90
_cell_angle_beta  90
_cell_angle_gamma 90
_cell_volume      16310.8

_symmetry_cell_setting          triclinic
_symmetry_space_group_name_Hall 'P 1'
_symmetry_space_group_name_H-M  'P 1'
_symmetry_Int_Tables_number     1

_symmetry_equiv_pos_as_xyz 'x,y,z'

loop_
_atom_site_label
_atom_site_type_symbol
_atom_site_fract_x
_atom_site_fract_y
_atom_site_fract_z
_atom_site_charge
C1       C      0.780440000000     0.530300000000     0.759800000000     0.342207   
C2       C      0.916410000000     0.403850000000     0.776030000000     0.340633   
C3       C      0.896600000000     0.533660000000     0.902050000000     0.341853   
C4       C      0.766620000000     0.403530000000     0.885440000000     0.34133    
C5       C      0.029810000000     0.648150000000     0.013800000000     0.324528   
C6       C      0.126650000000     0.646880000000     0.171780000000     0.341642   
C7       C      0.158410000000     0.770010000000     0.040990000000     0.341412   
C8       C      0.002410000000     0.782720000000     0.137280000000     0.340297   
C9       C      0.259430000000     0.879040000000     0.898690000000     0.341393   
C10      C      0.281090000000     0.015520000000     0.768330000000     0.339628   
C11      C      0.382950000000     0.006100000000     0.921100000000     0.340483   
C12      C      0.402430000000     0.879040000000     0.785470000000     0.340137   
C13      C      0.516480000000     0.140720000000     0.020210000000     0.340064   
C14      C      0.635250000000     0.275630000000     0.996970000000     0.341257   
C15      C      0.531250000000     0.279740000000     0.148780000000     0.340859   
C16      C      0.659610000000     0.153570000000     0.133310000000     0.340142   
C17      C      0.265230000000     0.526830000000     0.278920000000     0.340998   
C18      C      0.401900000000     0.407410000000     0.263950000000     0.340797   
C19      C      0.415170000000     0.533380000000     0.390060000000     0.342945   
C20      C      0.284470000000     0.402730000000     0.407800000000     0.342954   
C21      C      0.666470000000     0.793690000000     0.543980000000     0.340972   
C22      C      0.638710000000     0.646700000000     0.660140000000     0.342611   
C23      C      0.513890000000     0.776910000000     0.643770000000     0.34074    
C24      C      0.544300000000     0.660810000000     0.503560000000     0.341451   
C25      C      0.887810000000     0.908000000000     0.267080000000     0.341209   
C26      C      0.767310000000     0.045180000000     0.276300000000     0.340138   
C27      C      0.773540000000     0.911800000000     0.408490000000     0.340245   
C28      C      0.900870000000     0.044840000000     0.399600000000     0.33871    
C29      C      0.147070000000     0.283630000000     0.513010000000     0.341298   
C30      C      0.019420000000     0.155570000000     0.534120000000     0.340488   
C31      C      0.172760000000     0.142110000000     0.634150000000     0.340636   
C32      C      0.050690000000     0.276530000000     0.668890000000     0.340703   
C33      C      0.980440000000     0.059770000000     0.503840000000    -0.0115582  
C34      C      0.941930000000     0.162680000000     0.487900000000     0.00381665 
C35      C      0.974800000000     0.042650000000     0.450320000000    -0.017081   
C36      C      0.934780000000     0.145150000000     0.434020000000    -0.0587727  
C37      C      0.891260000000     0.179460000000     0.413420000000     0.320245   
C38      C      0.699540000000     0.907470000000     0.459930000000    -0.0130669  
C39      C      0.756050000000     0.815310000000     0.453490000000     0.00355252 
C40      C      0.694830000000     0.895420000000     0.514580000000    -0.0162457  
C41      C      0.751530000000     0.806170000000     0.508660000000    -0.0561498  
C42      C      0.763650000000     0.740560000000     0.523610000000     0.318539   
C43      C      0.253840000000     0.304330000000     0.442640000000    -0.0118417  
C44      C      0.226850000000     0.406330000000     0.477130000000     0.00461151 
C45      C      0.200500000000     0.283160000000     0.440720000000    -0.0169116  
C46      C      0.173380000000     0.384880000000     0.473920000000    -0.0573325  
C47      C      0.141160000000     0.419940000000     0.509120000000     0.318501   
C48      C      0.490870000000     0.666410000000     0.431020000000    -0.0104257  
C49      C      0.536520000000     0.570110000000     0.449180000000     0.00416608 
C50      C      0.443200000000     0.630590000000     0.425790000000    -0.0162441  
C51      C      0.490320000000     0.530430000000     0.441930000000    -0.0563057  
C52      C      0.505800000000     0.470900000000     0.417300000000     0.316973   
C53      C      0.694500000000     0.057750000000     0.168210000000    -0.0120386  
C54      C      0.734200000000     0.160030000000     0.184120000000     0.00343138 
C55      C      0.695500000000     0.043320000000     0.222520000000    -0.016644   
C56      C      0.736060000000     0.145240000000     0.238890000000    -0.0570343  
C57      C      0.778070000000     0.179670000000     0.262260000000     0.318628   
C58      C      0.474650000000     0.278960000000     0.218940000000    -0.0116247  
C59      C      0.513790000000     0.377670000000     0.192020000000     0.00395242 
C60      C      0.425260000000     0.311450000000     0.221990000000    -0.0168713  
C61      C      0.464360000000     0.411450000000     0.195950000000    -0.0584705  
C62      C      0.473470000000     0.478940000000     0.207580000000     0.318078   
C63      C      0.206390000000     0.040260000000     0.657900000000    -0.0106587  
C64      C      0.254620000000     0.135800000000     0.672030000000     0.00414952 
C65      C      0.213490000000     0.020070000000     0.710460000000    -0.017166   
C66      C      0.265800000000     0.115950000000     0.724760000000    -0.0591762  
C67      C      0.317080000000     0.137020000000     0.736960000000     0.319004   
C68      C      0.479490000000     0.871240000000     0.681600000000    -0.012247   
C69      C      0.438280000000     0.768700000000     0.692910000000     0.0037608  
C70      C      0.477740000000     0.882130000000     0.736480000000    -0.0166213  
C71      C      0.436240000000     0.780180000000     0.748160000000    -0.0574615  
C72      C      0.395060000000     0.744000000000     0.771350000000     0.31891    
C73      C      0.445910000000     0.136670000000     0.964260000000    -0.0128063  
C74      C      0.491830000000     0.039360000000     0.986570000000     0.00383382 
C75      C      0.397920000000     0.100920000000     0.968770000000    -0.016358   
C76      C      0.442820000000     0.005400000000     0.991690000000    -0.0568706  
C77      C      0.448980000000     0.936240000000     0.985790000000     0.317873   
C78      C      0.967910000000     0.884270000000     0.160550000000    -0.0104402  
C79      C      0.919200000000     0.788500000000     0.172120000000     0.00402461 
C80      C      0.958440000000     0.903940000000     0.212860000000    -0.016984   
C81      C      0.906020000000     0.807680000000     0.224480000000    -0.0579537  
C82      C      0.854370000000     0.786070000000     0.234360000000     0.318699   
C83      C      0.188650000000     0.881070000000     0.954570000000    -0.012169   
C84      C      0.229830000000     0.780540000000     0.934180000000     0.00507165 
C85      C      0.193950000000     0.866350000000     0.008710000000    -0.0166353  
C86      C      0.234920000000     0.766600000000     0.988800000000    -0.0575077  
C87      C      0.239400000000     0.697900000000     0.998300000000     0.318621   
C88      C      0.176510000000     0.648910000000     0.246880000000    -0.00997408 
C89      C      0.144850000000     0.549160000000     0.215090000000     0.00496811 
C90      C      0.228190000000     0.622830000000     0.249390000000    -0.0176819  
C91      C      0.195890000000     0.519420000000     0.218990000000    -0.0594894  
C92      C      0.189280000000     0.451890000000     0.232070000000     0.318957   
C93      C      0.997100000000     0.273590000000     0.741380000000    -0.0102215  
C94      C      0.038690000000     0.371190000000     0.718170000000     0.00340409 
C95      C      0.947860000000     0.306350000000     0.743540000000    -0.0170855  
C96      C      0.990500000000     0.407720000000     0.722170000000    -0.0572784  
C97      C      0.002600000000     0.471280000000     0.741930000000     0.318008   
C98      C      0.691170000000     0.271440000000     0.926430000000    -0.0105789  
C99      C      0.645320000000     0.367830000000     0.944560000000     0.00400263 
C100     C      0.738910000000     0.307180000000     0.922760000000    -0.0166507  
C101     C      0.691850000000     0.407180000000     0.938150000000    -0.0576414  
C102     C      0.677000000000     0.467460000000     0.914280000000     0.317908   
C103     C      0.745080000000     0.628090000000     0.728920000000    -0.013849   
C104     C      0.721800000000     0.526380000000     0.691180000000     0.00347012 
C105     C      0.691020000000     0.644970000000     0.733070000000    -0.0145686  
C106     C      0.667560000000     0.544350000000     0.695650000000    -0.0554907  
C107     C      0.636650000000     0.510060000000     0.658890000000     0.318176   
C108     C      0.931270000000     0.632480000000     0.931580000000    -0.0136965  
C109     C      0.944210000000     0.533970000000     0.978690000000    -0.00120923 
C110     C      0.985770000000     0.646960000000     0.935190000000    -0.0139742  
C111     C      0.998940000000     0.548840000000     0.982710000000    -0.0405391  
C112     C      0.020140000000     0.523700000000     0.029350000000     0.250293   
Cd1      Cd     0.840740000000     0.467220000000     0.830100000000     0.515352   
Cd2      Cd     0.079390000000     0.711370000000     0.092670000000     0.512062   
Cd3      Cd     0.331200000000     0.945520000000     0.842800000000     0.516282   
Cd4      Cd     0.585470000000     0.213180000000     0.075360000000     0.511779   
Cd5      Cd     0.341150000000     0.467890000000     0.335580000000     0.516937   
Cd6      Cd     0.589680000000     0.719430000000     0.586680000000     0.514137   
Cd7      Cd     0.833060000000     0.977170000000     0.338730000000     0.515639   
Cd8      Cd     0.097050000000     0.214400000000     0.588040000000     0.512701   
H1       H      0.008990000000     0.055650000000     0.431080000000     0.0547754  
H2       H      0.013280000000     0.036270000000     0.518710000000     0.0576776  
H3       H      0.967750000000     0.162320000000     0.414600000000     0.0747704  
H4       H      0.970980000000     0.991610000000     0.447650000000     0.0591276  
H5       H      0.948050000000     0.042140000000     0.523860000000     0.0539413  
H6       H      0.908200000000     0.150890000000     0.508430000000     0.0597686  
H7       H      0.947590000000     0.213480000000     0.490930000000     0.0585728  
H8       H      0.868130000000     0.230990000000     0.356170000000     0.204112   
H9       H      0.723150000000     0.923210000000     0.533600000000     0.0542072  
H10      H      0.697380000000     0.958110000000     0.453370000000     0.05896    
H11      H      0.780010000000     0.836420000000     0.525130000000     0.0705359  
H12      H      0.658620000000     0.912090000000     0.527200000000     0.0597763  
H13      H      0.667940000000     0.885550000000     0.441340000000     0.0553972  
H14      H      0.729190000000     0.784880000000     0.434860000000     0.0644731  
H15      H      0.793220000000     0.801200000000     0.441570000000     0.0628875  
H16      H      0.759960000000     0.650350000000     0.503270000000     0.199964   
H17      H      0.185830000000     0.294470000000     0.404100000000     0.0570157  
H18      H      0.274340000000     0.282250000000     0.412420000000     0.0587989  
H19      H      0.160820000000     0.397700000000     0.436770000000     0.0764558  
H20      H      0.199190000000     0.232080000000     0.444830000000     0.058321   
H21      H      0.269920000000     0.287890000000     0.477420000000     0.0556962  
H22      H      0.241080000000     0.395660000000     0.514050000000     0.0622255  
H23      H      0.228730000000     0.457290000000     0.471920000000     0.0603652  
H24      H      0.072990000000     0.454870000000     0.518400000000     0.200092   
H25      H      0.422650000000     0.634440000000     0.460510000000     0.0573523  
H26      H      0.482710000000     0.714090000000     0.443740000000     0.0564874  
H27      H      0.475840000000     0.519130000000     0.478680000000     0.0771549  
H28      H      0.420930000000     0.653660000000     0.397290000000     0.060507   
H29      H      0.508160000000     0.669850000000     0.394550000000     0.0549005  
H30      H      0.556890000000     0.572980000000     0.414240000000     0.0593604  
H31      H      0.560880000000     0.547000000000     0.475960000000     0.059577   
H32      H      0.529040000000     0.433980000000     0.353450000000     0.198383   
H33      H      0.660290000000     0.058770000000     0.238570000000     0.0550656  
H34      H      0.662380000000     0.034680000000     0.151490000000     0.0582903  
H35      H      0.701560000000     0.163880000000     0.254550000000     0.0732459  
H36      H      0.697680000000     0.992370000000     0.227220000000     0.0594114  
H37      H      0.727930000000     0.037920000000     0.151410000000     0.0546604  
H38      H      0.769240000000     0.145680000000     0.167090000000     0.0606642  
H39      H      0.730240000000     0.210800000000     0.178910000000     0.0576822  
H40      H      0.850490000000     0.198690000000     0.256970000000     0.198014   
H41      H      0.406010000000     0.304550000000     0.186820000000     0.055328   
H42      H      0.468750000000     0.229620000000     0.209250000000     0.0562554  
H43      H      0.447370000000     0.409160000000     0.159250000000     0.0766306  
H44      H      0.403130000000     0.288350000000     0.250550000000     0.0599738  
H45      H      0.491920000000     0.280460000000     0.255490000000     0.0542001  
H46      H      0.534230000000     0.383560000000     0.226660000000     0.0584634  
H47      H      0.535830000000     0.399230000000     0.162600000000     0.0594456  
H48      H      0.459110000000     0.566690000000     0.185550000000     0.199194   
H49      H      0.180830000000     0.034390000000     0.731650000000     0.0562141  
H50      H      0.171170000000     0.021600000000     0.644220000000     0.0574405  
H51      H      0.239980000000     0.141490000000     0.748670000000     0.0765743  
H52      H      0.214860000000     0.968680000000     0.711120000000     0.0600476  
H53      H      0.236240000000     0.019840000000     0.635690000000     0.0533412  
H54      H      0.284560000000     0.119720000000     0.647780000000     0.0566824  
H55      H      0.253740000000     0.187170000000     0.670010000000     0.0577741  
H56      H      0.356310000000     0.196300000000     0.778790000000     0.197087   
H57      H      0.512360000000     0.864640000000     0.752490000000     0.0558057  
H58      H      0.512230000000     0.894600000000     0.666390000000     0.0590327  
H59      H      0.470840000000     0.760860000000     0.763010000000     0.0740781  
H60      H      0.476200000000     0.932730000000     0.743330000000     0.0614749  
H61      H      0.446670000000     0.892990000000     0.665090000000     0.0558864  
H62      H      0.403510000000     0.784810000000     0.676300000000     0.0608382  
H63      H      0.441720000000     0.718260000000     0.685760000000     0.0598254  
H64      H      0.376020000000     0.695200000000     0.831470000000     0.199918   
H65      H      0.384270000000     0.106370000000     0.006600000000     0.0529909  
H66      H      0.439590000000     0.185360000000     0.975570000000     0.0573427  
H67      H      0.430780000000     0.013500000000     0.029850000000     0.0703894  
H68      H      0.370440000000     0.122030000000     0.944140000000     0.0601474  
H69      H      0.456890000000     0.137060000000     0.925370000000     0.0557394  
H70      H      0.506660000000     0.031070000000     0.949500000000     0.0626175  
H71      H      0.518290000000     0.020070000000     0.013230000000     0.0595042  
H72      H      0.485380000000     0.869180000000     0.948870000000     0.199123   
H73      H      0.990110000000     0.889380000000     0.235400000000     0.056001   
H74      H      0.003710000000     0.903060000000     0.148590000000     0.0567132  
H75      H      0.931230000000     0.782320000000     0.249180000000     0.075516   
H76      H      0.957020000000     0.955320000000     0.213810000000     0.0590398  
H77      H      0.939100000000     0.904920000000     0.137140000000     0.0527495  
H78      H      0.890200000000     0.804860000000     0.146870000000     0.0567415  
H79      H      0.920200000000     0.737150000000     0.169740000000     0.0573001  
H80      H      0.783230000000     0.799510000000     0.216450000000     0.196885   
H81      H      0.228990000000     0.886420000000     0.021640000000     0.0562139  
H82      H      0.190090000000     0.931990000000     0.949330000000     0.0571517  
H83      H      0.270160000000     0.787950000000     0.000110000000     0.0755555  
H84      H      0.164040000000     0.889430000000     0.029060000000     0.0594855  
H85      H      0.152160000000     0.864760000000     0.942370000000     0.0546211  
H86      H      0.195530000000     0.759110000000     0.920600000000     0.0619303  
H87      H      0.260860000000     0.759550000000     0.913990000000     0.0615048  
H88      H      0.217180000000     0.612750000000     0.976240000000     0.198597   
H89      H      0.247910000000     0.636630000000     0.215780000000     0.0605386  
H90      H      0.178380000000     0.699600000000     0.240460000000     0.057179   
H91      H      0.212570000000     0.521750000000     0.182160000000     0.0795748  
H92      H      0.247170000000     0.645130000000     0.280490000000     0.0607884  
H93      H      0.158630000000     0.641230000000     0.282660000000     0.0536878  
H94      H      0.124180000000     0.540070000000     0.249180000000     0.0578153  
H95      H      0.124350000000     0.527110000000     0.184800000000     0.0586914  
H96      H      0.199100000000     0.364150000000     0.207660000000     0.195454   
H97      H      0.928650000000     0.298550000000     0.708480000000     0.0571462  
H98      H      0.991330000000     0.224320000000     0.731420000000     0.0559969  
H99      H      0.975900000000     0.412990000000     0.684630000000     0.0766724  
H100     H      0.925710000000     0.283900000000     0.772440000000     0.0597568  
H101     H      0.013690000000     0.274950000000     0.778250000000     0.0530402  
H102     H      0.058320000000     0.373360000000     0.753560000000     0.0583661  
H103     H      0.062510000000     0.393390000000     0.690470000000     0.0618103  
H104     H      0.025510000000     0.517840000000     0.801870000000     0.193685   
H105     H      0.758080000000     0.303900000000     0.958280000000     0.0566643  
H106     H      0.698990000000     0.223570000000     0.938920000000     0.0562981  
H107     H      0.706090000000     0.417450000000     0.975170000000     0.0760357  
H108     H      0.762260000000     0.283750000000     0.895310000000     0.059761   
H109     H      0.674810000000     0.268540000000     0.889510000000     0.0537858  
H110     H      0.625260000000     0.365740000000     0.909400000000     0.0578755  
H111     H      0.620890000000     0.390720000000     0.971380000000     0.0592791  
H112     H      0.653340000000     0.505960000000     0.851170000000     0.192631   
H113     H      0.677730000000     0.629320000000     0.769230000000     0.0533695  
H114     H      0.765410000000     0.649950000000     0.759350000000     0.060893   
H115     H      0.655890000000     0.528220000000     0.732320000000     0.0707428  
H116     H      0.687180000000     0.696100000000     0.731840000000     0.059597   
H117     H      0.759340000000     0.647710000000     0.694370000000     0.0621784  
H118     H      0.735130000000     0.539710000000     0.654460000000     0.0651028  
H119     H      0.725700000000     0.475390000000     0.694840000000     0.0603092  
H120     H      0.634250000000     0.478030000000     0.589510000000     0.200956   
H121     H      0.004030000000     0.628620000000     0.902120000000     0.0530669  
H122     H      0.916830000000     0.651910000000     0.897080000000     0.0593491  
H123     H      0.017260000000     0.525280000000     0.951740000000     0.0672332  
H124     H      0.991060000000     0.697910000000     0.935950000000     0.0566078  
H125     H      0.912330000000     0.656090000000     0.962120000000     0.0545133  
H126     H      0.925400000000     0.551600000000     0.011750000000     0.0553625  
H127     H      0.939000000000     0.482990000000     0.977440000000     0.0653537  
H128     H      0.031880000000     0.446570000000     0.069880000000     0.174298   
N1       N      0.933540000000     0.076580000000     0.428210000000    -0.138547   
N2       N      0.982620000000     0.127360000000     0.508970000000    -0.152616   
N3       N      0.703100000000     0.829280000000     0.524580000000    -0.139665   
N4       N      0.744950000000     0.880090000000     0.440660000000    -0.151987   
N5       N      0.171600000000     0.316290000000     0.477810000000    -0.138729   
N6       N      0.256410000000     0.372370000000     0.441230000000    -0.151861   
N7       N      0.451100000000     0.564200000000     0.415170000000    -0.136332   
N8       N      0.523700000000     0.633160000000     0.463880000000    -0.151804   
N9       N      0.735830000000     0.076970000000     0.246480000000    -0.13835    
N10      N      0.694460000000     0.125100000000     0.160900000000    -0.152681   
N11      N      0.431280000000     0.378560000000     0.230360000000    -0.138217   
N12      N      0.506380000000     0.311120000000     0.184090000000    -0.152689   
N13      N      0.257240000000     0.048500000000     0.732800000000    -0.137895   
N14      N      0.209030000000     0.107780000000     0.654940000000    -0.152791   
N15      N      0.436350000000     0.847940000000     0.757960000000    -0.13843    
N16      N      0.478640000000     0.804410000000     0.671470000000    -0.15253    
N17      N      0.406520000000     0.034790000000     0.958930000000    -0.139498   
N18      N      0.484790000000     0.106540000000     0.992830000000    -0.152769   
N19      N      0.913750000000     0.875190000000     0.232960000000    -0.13776    
N20      N      0.965400000000     0.816760000000     0.157030000000    -0.15285    
N21      N      0.195050000000     0.798630000000     0.015460000000    -0.139095   
N22      N      0.226630000000     0.847980000000     0.926980000000    -0.152439   
N23      N      0.228440000000     0.554470000000     0.252750000000    -0.137288   
N24      N      0.148940000000     0.616310000000     0.209140000000    -0.152003   
N25      N      0.952960000000     0.373850000000     0.751170000000    -0.137342   
N26      N      0.029090000000     0.306000000000     0.707190000000    -0.15216    
N27      N      0.730980000000     0.373310000000     0.911350000000    -0.137384   
N28      N      0.657550000000     0.304360000000     0.958730000000    -0.152415   
N29      N      0.663200000000     0.612900000000     0.694670000000    -0.139377   
N30      N      0.750630000000     0.560320000000     0.727720000000    -0.15142    
N31      N      0.006310000000     0.616140000000     0.978170000000    -0.143523   
N32      N      0.923280000000     0.565270000000     0.935850000000    -0.151163   
O1       O      0.884770000000     0.374780000000     0.800580000000    -0.24012    
O2       O      0.799440000000     0.374540000000     0.862340000000    -0.239292   
O3       O      0.785510000000     0.472110000000     0.759310000000    -0.245798   
O4       O      0.878030000000     0.560320000000     0.865530000000    -0.238439   
O5       O      0.889080000000     0.476080000000     0.905380000000    -0.246445   
O6       O      0.804120000000     0.559080000000     0.792160000000    -0.238033   
O7       O      0.911710000000     0.462010000000     0.775520000000    -0.236699   
O8       O      0.769320000000     0.461870000000     0.883640000000    -0.2375     
O9       O      0.102580000000     0.618630000000     0.139440000000    -0.235423   
O10      O      0.041320000000     0.807540000000     0.122090000000    -0.242231   
O11      O      0.046040000000     0.621350000000     0.051310000000    -0.1939     
O12      O      0.155420000000     0.711900000000     0.045150000000    -0.235106   
O13      O      0.124770000000     0.800620000000     0.061390000000    -0.241194   
O14      O      0.036410000000     0.706020000000     0.012040000000    -0.243166   
O15      O      0.128770000000     0.705060000000     0.167570000000    -0.247578   
O16      O      0.999490000000     0.724630000000     0.132530000000    -0.248679   
O17      O      0.312540000000     0.039660000000     0.796100000000    -0.230186   
O18      O      0.405810000000     0.936580000000     0.793380000000    -0.242675   
O19      O      0.257810000000     0.937180000000     0.893660000000    -0.248099   
O20      O      0.352250000000     0.034380000000     0.894890000000    -0.239743   
O21      O      0.390150000000     0.950110000000     0.910090000000    -0.234384   
O22      O      0.293760000000     0.851530000000     0.876820000000    -0.235664   
O23      O      0.272230000000     0.958860000000     0.775950000000    -0.24557    
O24      O      0.365930000000     0.852710000000     0.804430000000    -0.225333   
O25      O      0.603970000000     0.302900000000     0.023160000000    -0.239972   
O26      O      0.659850000000     0.211360000000     0.125920000000    -0.247402   
O27      O      0.512650000000     0.198850000000     0.023970000000    -0.24854    
O28      O      0.560850000000     0.306600000000     0.120480000000    -0.240407   
O29      O      0.526440000000     0.222020000000     0.142810000000    -0.249797   
O30      O      0.551810000000     0.116180000000     0.042690000000    -0.24077    
O31      O      0.644100000000     0.219870000000     0.007740000000    -0.248981   
O32      O      0.625150000000     0.123620000000     0.113720000000    -0.241002   
O33      O      0.398610000000     0.465590000000     0.267160000000    -0.232428   
O34      O      0.309510000000     0.374180000000     0.376310000000    -0.238538   
O35      O      0.274070000000     0.469550000000     0.276470000000    -0.236528   
O36      O      0.412240000000     0.475000000000     0.389500000000    -0.235797   
O37      O      0.382410000000     0.561770000000     0.366400000000    -0.237434   
O38      O      0.292980000000     0.557430000000     0.306830000000    -0.238741   
O39      O      0.375810000000     0.377080000000     0.293590000000    -0.237255   
O40      O      0.286500000000     0.461140000000     0.406220000000    -0.246985   
O41      O      0.615050000000     0.622030000000     0.625790000000    -0.225473   
O42      O      0.535450000000     0.716440000000     0.514730000000    -0.248438   
O43      O      0.670610000000     0.736080000000     0.550270000000    -0.235028   
O44      O      0.548790000000     0.807490000000     0.625640000000    -0.241384   
O45      O      0.513750000000     0.719410000000     0.635040000000    -0.245648   
O46      O      0.626010000000     0.816780000000     0.556730000000    -0.2412     
O47      O      0.638900000000     0.705240000000     0.660520000000    -0.246343   
O48      O      0.573760000000     0.632410000000     0.531010000000    -0.237418   
O49      O      0.764820000000     0.987030000000     0.281150000000    -0.244786   
O50      O      0.903040000000     0.986720000000     0.394610000000    -0.247059   
O51      O      0.855300000000     0.883480000000     0.293330000000    -0.23026    
O52      O      0.763780000000     0.966590000000     0.395560000000    -0.244736   
O53      O      0.811040000000     0.887800000000     0.389460000000    -0.238432   
O54      O      0.895620000000     0.964860000000     0.274880000000    -0.246671   
O55      O      0.800300000000     0.071490000000     0.300870000000    -0.223466   
O56      O      0.867150000000     0.071210000000     0.376160000000    -0.224346   
O57      O      0.020850000000     0.213600000000     0.540050000000    -0.246457   
O58      O      0.078940000000     0.304460000000     0.639920000000    -0.235725   
O59      O      0.122530000000     0.309500000000     0.546150000000    -0.226038   
O60      O      0.134380000000     0.117550000000     0.617390000000    -0.241711   
O61      O      0.175810000000     0.200250000000     0.630040000000    -0.247055   
O62      O      0.147980000000     0.225120000000     0.514500000000    -0.248803   
O63      O      0.053970000000     0.125100000000     0.553020000000    -0.241597   
O64      O      0.043800000000     0.219690000000     0.660440000000    -0.249293   
O65      O      0.852120000000     0.179130000000     0.434800000000    -0.217452   
O66      O      0.895460000000     0.209310000000     0.370520000000    -0.327633   
O67      O      0.781940000000     0.730850000000     0.563390000000    -0.225399   
O68      O      0.753010000000     0.692600000000     0.493960000000    -0.325676   
O69      O      0.156360000000     0.434720000000     0.549270000000    -0.219346   
O70      O      0.094710000000     0.433230000000     0.496490000000    -0.324371   
O71      O      0.507210000000     0.422690000000     0.440430000000    -0.223921   
O72      O      0.518980000000     0.471370000000     0.369980000000    -0.318272   
O73      O      0.771430000000     0.208520000000     0.299880000000    -0.223462   
O74      O      0.823090000000     0.177540000000     0.242280000000    -0.325909   
O75      O      0.497710000000     0.493510000000     0.243110000000    -0.220681   
O76      O      0.454160000000     0.523220000000     0.178830000000    -0.325486   
O77      O      0.352190000000     0.113800000000     0.716460000000    -0.224004   
O78      O      0.323950000000     0.181960000000     0.770330000000    -0.327689   
O79      O      0.355420000000     0.739750000000     0.751180000000    -0.220777   
O80      O      0.401830000000     0.717880000000     0.815400000000    -0.324791   
O81      O      0.423420000000     0.901000000000     0.009420000000    -0.224537   
O82      O      0.481440000000     0.913260000000     0.953530000000    -0.326831   
O83      O      0.846980000000     0.744120000000     0.263200000000    -0.223217   
O84      O      0.816510000000     0.812610000000     0.210800000000    -0.32635    
O85      O      0.264040000000     0.679640000000     0.032430000000    -0.222055   
O86      O      0.215190000000     0.656770000000     0.970260000000    -0.327362   
O87      O      0.171500000000     0.437360000000     0.271210000000    -0.226453   
O88      O      0.202890000000     0.407630000000     0.200230000000    -0.328341   
O89      O      0.999480000000     0.516650000000     0.715630000000    -0.223336   
O90      O      0.017560000000     0.477730000000     0.788440000000    -0.326135   
O91      O      0.677000000000     0.515410000000     0.937790000000    -0.225548   
O92      O      0.662970000000     0.468050000000     0.867210000000    -0.32557    
O93      O      0.595400000000     0.493640000000     0.669820000000    -0.220597   
O94      O      0.653790000000     0.499150000000     0.613650000000    -0.324214   
O95      O      0.042060000000     0.561440000000     0.060220000000    -0.133091   
O96      O      0.017560000000     0.464170000000     0.038890000000    -0.305868   


