data_structure

_audit_creation_method RASPA-1.0
_audit_creation_date 2023-5-22
_audit_author_name 'Poobodin Mano'

_cell_length_a    25.3078
_cell_length_b    25.5801
_cell_length_c    26.3411
_cell_angle_alpha 90
_cell_angle_beta  90
_cell_angle_gamma 90
_cell_volume      17052.6

_symmetry_cell_setting          triclinic
_symmetry_space_group_name_Hall 'P 1'
_symmetry_space_group_name_H-M  'P 1'
_symmetry_Int_Tables_number     1

_symmetry_equiv_pos_as_xyz 'x,y,z'

loop_
_atom_site_label
_atom_site_type_symbol
_atom_site_fract_x
_atom_site_fract_y
_atom_site_fract_z
_atom_site_charge
C1       C      0.931260000000     0.434580000000     0.926930000000     0.343357   
C2       C      0.799270000000     0.444400000000     0.793620000000     0.339607   
C3       C      0.920340000000     0.319920000000     0.781390000000     0.340668   
C4       C      0.807390000000     0.308620000000     0.926490000000     0.340273   
C5       C      0.077000000000     0.557060000000     0.015710000000     0.338028   
C6       C      0.196320000000     0.548070000000     0.160270000000     0.340348   
C7       C      0.211840000000     0.681650000000     0.041860000000     0.341787   
C8       C      0.052550000000     0.663160000000     0.148930000000     0.343703   
C9       C      0.332380000000     0.817480000000     0.927220000000     0.339892   
C10      C      0.447950000000     0.962750000000     0.914780000000     0.340629   
C11      C      0.452060000000     0.834690000000     0.793280000000     0.343607   
C12      C      0.305670000000     0.949590000000     0.797370000000     0.340676   
C13      C      0.703870000000     0.192730000000     0.070610000000     0.340462   
C14      C      0.567530000000     0.177140000000     0.196160000000     0.337822   
C15      C      0.571540000000     0.081780000000     0.041260000000     0.337836   
C16      C      0.686310000000     0.047650000000     0.189710000000     0.340999   
C17      C      0.321880000000     0.433050000000     0.291330000000     0.341542   
C18      C      0.445090000000     0.297670000000     0.323320000000     0.338386   
C19      C      0.438960000000     0.440430000000     0.433340000000     0.338541   
C20      C      0.306100000000     0.318540000000     0.438360000000     0.342561   
C21      C      0.696090000000     0.693270000000     0.549270000000     0.340455   
C22      C      0.683160000000     0.547990000000     0.655410000000     0.339837   
C23      C      0.579270000000     0.710580000000     0.675150000000     0.342579   
C24      C      0.549070000000     0.582650000000     0.540510000000     0.343298   
C25      C      0.830230000000     0.779430000000     0.412140000000     0.341677   
C26      C      0.959120000000     0.786690000000     0.285430000000     0.341323   
C27      C      0.820970000000     0.914110000000     0.291780000000     0.341938   
C28      C      0.957670000000     0.912110000000     0.416620000000     0.343258   
C29      C      0.044490000000     0.202060000000     0.654110000000     0.339182   
C30      C      0.166710000000     0.069050000000     0.688980000000     0.341728   
C31      C      0.060800000000     0.053670000000     0.539860000000     0.33745    
C32      C      0.175730000000     0.183460000000     0.534940000000     0.34402    
C33      C      0.977970000000     0.011830000000     0.511700000000    -0.0145669  
C34      C      0.059710000000     0.006880000000     0.457760000000    -0.0281818  
C35      C      0.966380000000     0.954670000000     0.499780000000    -0.0145736  
C36      C      0.046400000000     0.949890000000     0.444180000000     0.0315121  
C37      C      0.745920000000     0.733420000000     0.428500000000    -0.0141789  
C38      C      0.822230000000     0.722800000000     0.488060000000    -0.0274412  
C39      C      0.710170000000     0.747080000000     0.473180000000    -0.0146633  
C40      C      0.786040000000     0.735160000000     0.533390000000     0.0309368  
C41      C      0.293890000000     0.250340000000     0.504120000000    -0.0146736  
C42      C      0.216280000000     0.302190000000     0.472550000000    -0.0283183  
C43      C      0.262690000000     0.199770000000     0.495880000000    -0.0146091  
C44      C      0.185710000000     0.251090000000     0.464260000000     0.0322066  
C45      C      0.453990000000     0.486000000000     0.515240000000    -0.0155731  
C46      C      0.521430000000     0.490890000000     0.444720000000    -0.0290999  
C47      C      0.460840000000     0.544970000000     0.524210000000    -0.0145579  
C48      C      0.524350000000     0.549980000000     0.452550000000     0.0334053  
C49      C      0.740550000000     0.030710000000     0.266000000000    -0.0135467  
C50      C      0.700220000000     0.956490000000     0.218470000000    -0.0271888  
C51      C      0.793410000000     0.002360000000     0.267800000000    -0.0153684  
C52      C      0.751900000000     0.924810000000     0.223100000000     0.0308447  
C53      C      0.535220000000     0.273030000000     0.296480000000    -0.0135637  
C54      C      0.463370000000     0.206790000000     0.296240000000    -0.0269918  
C55      C      0.551530000000     0.257800000000     0.242980000000    -0.0151863  
C56      C      0.482080000000     0.185490000000     0.244410000000     0.0309744  
C57      C      0.286480000000     0.028130000000     0.745940000000    -0.0148704  
C58      C      0.221340000000     0.953580000000     0.749580000000    -0.0287033  
C59      C      0.240570000000     0.066710000000     0.749920000000    -0.0147364  
C60      C      0.175990000000     0.993570000000     0.752150000000     0.031654   
C61      C      0.562530000000     0.745250000000     0.761360000000    -0.0130102  
C62      C      0.544630000000     0.800290000000     0.685590000000    -0.0267377  
C63      C      0.508370000000     0.758030000000     0.783250000000    -0.0153364  
C64      C      0.490820000000     0.817450000000     0.707150000000     0.0313003  
C65      C      0.485720000000     0.075590000000     0.996720000000    -0.0134081  
C66      C      0.567440000000     0.043420000000     0.955210000000    -0.0270389  
C67      C      0.456400000000     0.025310000000     0.984030000000    -0.01487    
C68      C      0.538930000000     0.993840000000     0.936250000000     0.0314911  
C69      C      0.011780000000     0.777550000000     0.206680000000    -0.0150413  
C70      C      0.001610000000     0.701520000000     0.266900000000    -0.029023   
C71      C      0.997460000000     0.741320000000     0.162470000000    -0.0144469  
C72      C      0.986500000000     0.666780000000     0.221800000000     0.0328331  
C73      C      0.309640000000     0.725610000000     0.945500000000    -0.0133065  
C74      C      0.310140000000     0.791330000000     0.014930000000    -0.0271325  
C75      C      0.256980000000     0.703750000000     0.963230000000    -0.0149466  
C76      C      0.260140000000     0.766880000000     0.038690000000     0.0311838  
C77      C      0.300430000000     0.518750000000     0.253090000000    -0.0137478  
C78      C      0.278860000000     0.436060000000     0.207080000000    -0.0275197  
C79      C      0.246310000000     0.540970000000     0.239590000000    -0.015381   
C80      C      0.224960000000     0.458570000000     0.190870000000     0.0308869  
C81      C      0.033100000000     0.287170000000     0.697130000000    -0.013308   
C82      C      0.954820000000     0.238950000000     0.664930000000    -0.0274566  
C83      C      0.006780000000     0.295550000000     0.748360000000    -0.0152057  
C84      C      0.923770000000     0.250670000000     0.714040000000     0.0317013  
C85      C      0.723290000000     0.280600000000     0.035750000000    -0.0137689  
C86      C      0.789720000000     0.208970000000     0.028320000000    -0.0274813  
C87      C      0.729230000000     0.292740000000     0.979340000000    -0.0155798  
C88      C      0.797850000000     0.221470000000     0.971690000000     0.0311153  
C89      C      0.711410000000     0.476470000000     0.765500000000    -0.0157298  
C90      C      0.795110000000     0.510240000000     0.724910000000    -0.0290634  
C91      C      0.686560000000     0.471370000000     0.712480000000    -0.014596   
C92      C      0.770100000000     0.501280000000     0.672750000000     0.0327894  
C93      C      0.999680000000     0.551100000000     0.958200000000    -0.0151645  
C94      C      0.059700000000     0.474190000000     0.970020000000    -0.0284929  
C95      C      0.952060000000     0.516780000000     0.971630000000    -0.0147044  
C96      C      0.012020000000     0.440430000000     0.984700000000     0.0320577  
Cd1      Cd     0.863130000000     0.377740000000     0.857780000000     0.508876   
Cd2      Cd     0.136030000000     0.613720000000     0.091540000000     0.507992   
Cd3      Cd     0.380840000000     0.891590000000     0.858740000000     0.508094   
Cd4      Cd     0.633830000000     0.122700000000     0.124270000000     0.507517   
Cd5      Cd     0.375490000000     0.373440000000     0.369760000000     0.507257   
Cd6      Cd     0.623480000000     0.631940000000     0.608650000000     0.508115   
Cd7      Cd     0.892490000000     0.849030000000     0.350330000000     0.508834   
Cd8      Cd     0.113140000000     0.125460000000     0.607620000000     0.507464   
H1       H      0.985110000000     0.930190000000     0.529690000000     0.0486183  
H2       H      0.963440000000     0.020660000000     0.550600000000     0.053961   
H3       H      0.067710000000     0.924810000000     0.471950000000     0.037835   
H4       H      0.103400000000     0.011550000000     0.459050000000     0.0570038  
H5       H      0.923000000000     0.948510000000     0.502430000000     0.0540797  
H6       H      0.955510000000     0.036660000000     0.484580000000     0.0504575  
H7       H      0.044490000000     0.032870000000     0.427190000000     0.0536186  
H8       H      0.094320000000     0.886550000000     0.382200000000     0.0460743  
H9       H      0.710540000000     0.790290000000     0.478020000000     0.0487665  
H10      H      0.731720000000     0.754130000000     0.394010000000     0.0526934  
H11      H      0.788920000000     0.777990000000     0.540160000000     0.0383784  
H12      H      0.863070000000     0.736360000000     0.496450000000     0.057667   
H13      H      0.669010000000     0.735650000000     0.463550000000     0.0531786  
H14      H      0.742910000000     0.690670000000     0.421400000000     0.0492213  
H15      H      0.823600000000     0.679650000000     0.482820000000     0.0532822  
H16      H      0.804570000000     0.734130000000     0.630470000000     0.0456977  
H17      H      0.271530000000     0.185050000000     0.457060000000     0.0489326  
H18      H      0.336620000000     0.242380000000     0.498130000000     0.053932   
H19      H      0.195050000000     0.238190000000     0.424920000000     0.0382252  
H20      H      0.203730000000     0.331670000000     0.443950000000     0.0581143  
H21      H      0.276920000000     0.169950000000     0.523350000000     0.0544965  
H22      H      0.288520000000     0.262740000000     0.544250000000     0.0508251  
H23      H      0.206340000000     0.317690000000     0.510840000000     0.0553179  
H24      H      0.090350000000     0.227990000000     0.435570000000     0.0444549  
H25      H      0.430160000000     0.565880000000     0.501800000000     0.0482376  
H26      H      0.412440000000     0.474950000000     0.523720000000     0.0540211  
H27      H      0.491930000000     0.567080000000     0.429300000000     0.0381672  
H28      H      0.528260000000     0.481590000000     0.404000000000     0.0597115  
H29      H      0.453670000000     0.553580000000     0.564990000000     0.0540337  
H30      H      0.479880000000     0.464880000000     0.542490000000     0.0505818  
H31      H      0.553390000000     0.472050000000     0.467220000000     0.0561926  
H32      H      0.579660000000     0.628710000000     0.420000000000     0.0463171  
H33      H      0.817570000000     0.015610000000     0.234960000000     0.0506537  
H34      H      0.747810000000     0.073570000000     0.265600000000     0.0532048  
H35      H      0.773510000000     0.928930000000     0.186570000000     0.0394098  
H36      H      0.680090000000     0.945770000000     0.182390000000     0.0567474  
H37      H      0.814380000000     0.014810000000     0.302850000000     0.0540903  
H38      H      0.718300000000     0.021230000000     0.301240000000     0.0482806  
H39      H      0.673390000000     0.945510000000     0.250210000000     0.0522225  
H40      H      0.761500000000     0.827510000000     0.195700000000     0.0459174  
H41      H      0.531730000000     0.284650000000     0.215760000000     0.0521157  
H42      H      0.544720000000     0.314980000000     0.302700000000     0.0538372  
H43      H      0.454300000000     0.200310000000     0.215050000000     0.0403551  
H44      H      0.419850000000     0.201490000000     0.299310000000     0.0564365  
H45      H      0.594820000000     0.264460000000     0.239580000000     0.0548876  
H46      H      0.558890000000     0.249600000000     0.323840000000     0.0480525  
H47      H      0.481830000000     0.183370000000     0.327140000000     0.0515151  
H48      H      0.445440000000     0.098910000000     0.206200000000     0.0474114  
H49      H      0.233530000000     0.075050000000     0.790820000000     0.0479004  
H50      H      0.321490000000     0.045240000000     0.765270000000     0.0538076  
H51      H      0.169080000000     0.001310000000     0.793190000000     0.0369841  
H52      H      0.210510000000     0.918410000000     0.772130000000     0.0579558  
H53      H      0.252410000000     0.104060000000     0.731640000000     0.0547217  
H54      H      0.296570000000     0.023070000000     0.705150000000     0.0513235  
H55      H      0.226490000000     0.941090000000     0.709430000000     0.0554528  
H56      H      0.073770000000     0.984640000000     0.753450000000     0.0449131  
H57      H      0.480930000000     0.725570000000     0.773530000000     0.0517801  
H58      H      0.574720000000     0.705730000000     0.774450000000     0.0525526  
H59      H      0.459660000000     0.794400000000     0.687550000000     0.0410037  
H60      H      0.542480000000     0.800300000000     0.643400000000     0.0566517  
H61      H      0.512060000000     0.758740000000     0.825320000000     0.0541625  
H62      H      0.591470000000     0.774060000000     0.776420000000     0.0467109  
H63      H      0.575180000000     0.829430000000     0.696750000000     0.0507433  
H64      H      0.434360000000     0.891190000000     0.665900000000     0.046946   
H65      H      0.457100000000     0.999520000000     0.018020000000     0.0520242  
H66      H      0.468960000000     0.092410000000     0.032150000000     0.0529107  
H67      H      0.552820000000     0.960440000000     0.959740000000     0.0410476  
H68      H      0.609880000000     0.034100000000     0.961470000000     0.0565007  
H69      H      0.414360000000     0.035510000000     0.976660000000     0.0539028  
H70      H      0.478870000000     0.104080000000     0.965490000000     0.0473069  
H71      H      0.565690000000     0.074040000000     0.925210000000     0.0507849  
H72      H      0.581560000000     0.933120000000     0.868220000000     0.0466827  
H73      H      0.953950000000     0.743170000000     0.156700000000     0.0474942  
H74      H      0.997470000000     0.817670000000     0.198090000000     0.0536678  
H75      H      0.943000000000     0.670910000000     0.217050000000     0.0373407  
H76      H      0.980520000000     0.688030000000     0.301550000000     0.0584677  
H77      H      0.016450000000     0.756020000000     0.127220000000     0.0544541  
H78      H      0.055570000000     0.779100000000     0.209800000000     0.0508928  
H79      H      0.044770000000     0.697490000000     0.273870000000     0.0557165  
H80      H      0.966770000000     0.568520000000     0.206060000000     0.043455   
H81      H      0.225010000000     0.721880000000     0.940220000000     0.0523007  
H82      H      0.313000000000     0.719910000000     0.903780000000     0.0538077  
H83      H      0.226460000000     0.793600000000     0.030830000000     0.0407595  
H84      H      0.310220000000     0.834020000000     0.023060000000     0.0564747  
H85      H      0.256730000000     0.661120000000     0.954840000000     0.0541796  
H86      H      0.341850000000     0.702880000000     0.963920000000     0.0481103  
H87      H      0.345880000000     0.774490000000     0.033390000000     0.051776   
H88      H      0.230310000000     0.793230000000     0.129770000000     0.0464166  
H89      H      0.218910000000     0.532630000000     0.271590000000     0.0500491  
H90      H      0.313140000000     0.535180000000     0.290220000000     0.0527491  
H91      H      0.195000000000     0.443870000000     0.218260000000     0.0389506  
H92      H      0.275080000000     0.393000000000     0.211830000000     0.0569584  
H93      H      0.250010000000     0.584170000000     0.236680000000     0.053996   
H94      H      0.329230000000     0.531850000000     0.223840000000     0.0488214  
H95      H      0.308050000000     0.443190000000     0.176240000000     0.0532046  
H96      H      0.158250000000     0.413990000000     0.129340000000     0.0462163  
H97      H      0.020880000000     0.264690000000     0.774850000000     0.0515251  
H98      H      0.076650000000     0.285620000000     0.702520000000     0.0532437  
H99      H      0.923040000000     0.214280000000     0.737110000000     0.0398761  
H100     H      0.941170000000     0.200920000000     0.649210000000     0.0571322  
H101     H      0.020720000000     0.333700000000     0.763540000000     0.0548501  
H102     H      0.023980000000     0.321330000000     0.672510000000     0.0479277  
H103     H      0.945680000000     0.269530000000     0.636150000000     0.0515212  
H104     H      0.822840000000     0.232170000000     0.720650000000     0.0463704  
H105     H      0.698140000000     0.270850000000     0.958390000000     0.0497659  
H106     H      0.682400000000     0.290270000000     0.047980000000     0.0534338  
H107     H      0.771970000000     0.194550000000     0.949770000000     0.0390276  
H108     H      0.796440000000     0.166510000000     0.034780000000     0.0575005  
H109     H      0.721290000000     0.335070000000     0.973580000000     0.0550353  
H110     H      0.750940000000     0.306150000000     0.057230000000     0.0487506  
H111     H      0.819720000000     0.230750000000     0.050840000000     0.0523403  
H112     H      0.866810000000     0.179300000000     0.910940000000     0.0466996  
H113     H      0.693340000000     0.430780000000     0.698810000000     0.0469408  
H114     H      0.695510000000     0.445090000000     0.790360000000     0.0541053  
H115     H      0.778150000000     0.459740000000     0.662780000000     0.0370407  
H116     H      0.838500000000     0.503850000000     0.722440000000     0.0587248  
H117     H      0.643160000000     0.477170000000     0.715560000000     0.0539191  
H118     H      0.698970000000     0.514610000000     0.781830000000     0.051728   
H119     H      0.788290000000     0.551560000000     0.736350000000     0.0570745  
H120     H      0.794130000000     0.518410000000     0.578330000000     0.0441514  
H121     H      0.944590000000     0.520490000000     0.013080000000     0.0480327  
H122     H      0.991750000000     0.591990000000     0.970270000000     0.0536424  
H123     H      0.007150000000     0.444760000000     0.026480000000     0.0378404  
H124     H      0.095650000000     0.460060000000     0.990080000000     0.0586903  
H125     H      0.916670000000     0.532100000000     0.951570000000     0.054245   
H126     H      0.004380000000     0.550960000000     0.916230000000     0.0505973  
H127     H      0.066600000000     0.470120000000     0.928490000000     0.055526   
H128     H      0.998530000000     0.342350000000     0.006740000000     0.0441122  
N1       N      0.988670000000     0.939960000000     0.449940000000    -0.15529    
N2       N      0.034700000000     0.022630000000     0.505850000000    -0.14997    
N3       N      0.730130000000     0.722530000000     0.520280000000    -0.15536    
N4       N      0.800800000000     0.746480000000     0.441510000000    -0.151102   
N5       N      0.205500000000     0.210440000000     0.500040000000    -0.156017   
N6       N      0.273470000000     0.291690000000     0.470480000000    -0.150327   
N7       N      0.513620000000     0.561600000000     0.506800000000    -0.156746   
N8       N      0.469900000000     0.471690000000     0.463110000000    -0.149734   
N9       N      0.786740000000     0.945010000000     0.264460000000    -0.154664   
N10      N      0.710080000000     0.012910000000     0.221910000000    -0.150861   
N11      N      0.536340000000     0.203440000000     0.230450000000    -0.153832   
N12      N      0.479070000000     0.261420000000     0.303670000000    -0.150258   
N13      N      0.192450000000     0.043480000000     0.727750000000    -0.155804   
N14      N      0.271400000000     0.976940000000     0.767180000000    -0.150164   
N15      N      0.486300000000     0.807360000000     0.762750000000    -0.154933   
N16      N      0.560690000000     0.749380000000     0.705980000000    -0.151416   
N17      N      0.480190000000     0.996630000000     0.940900000000    -0.154193   
N18      N      0.542370000000     0.064890000000     0.000770000000    -0.150106   
N19      N      0.012740000000     0.687270000000     0.175460000000    -0.156922   
N20      N      0.989950000000     0.756610000000     0.254460000000    -0.150753   
N21      N      0.246510000000     0.714500000000     0.017470000000    -0.154691   
N22      N      0.314120000000     0.780580000000     0.960420000000    -0.150159   
N23      N      0.224660000000     0.516870000000     0.192980000000    -0.1545     
N24      N      0.298630000000     0.461400000000     0.253360000000    -0.150787   
N25      N      0.948410000000     0.292670000000     0.745410000000    -0.154586   
N26      N      0.012030000000     0.239730000000     0.673630000000    -0.150337   
N27      N      0.781550000000     0.276260000000     0.959980000000    -0.155103   
N28      N      0.737070000000     0.225730000000     0.045170000000    -0.150752   
N29      N      0.712030000000     0.508420000000     0.677200000000    -0.156202   
N30      N      0.769680000000     0.475500000000     0.762370000000    -0.149943   
N31      N      0.963700000000     0.461500000000     0.959600000000    -0.156428   
N32      N      0.047730000000     0.529250000000     0.981500000000    -0.150145   
O1       O      0.849240000000     0.445180000000     0.792720000000    -0.251194   
O2       O      0.845250000000     0.293340000000     0.899010000000    -0.248849   
O3       O      0.890290000000     0.455160000000     0.907920000000    -0.251497   
O4       O      0.941610000000     0.355530000000     0.807830000000    -0.246833   
O5       O      0.872330000000     0.310430000000     0.791310000000    -0.248814   
O6       O      0.940070000000     0.388100000000     0.913500000000    -0.24867    
O7       O      0.778430000000     0.412960000000     0.824890000000    -0.247378   
O8       O      0.794090000000     0.355980000000     0.920630000000    -0.248351   
O9       O      0.165310000000     0.529740000000     0.127190000000    -0.244083   
O10      O      0.073120000000     0.684110000000     0.110180000000    -0.247849   
O11      O      0.117280000000     0.537780000000     0.037170000000    -0.243441   
O12      O      0.198620000000     0.637850000000     0.023400000000    -0.253141   
O13      O      0.189580000000     0.693710000000     0.083150000000    -0.248251   
O14      O      0.064740000000     0.603140000000     0.028610000000    -0.250476   
O15      O      0.198630000000     0.597520000000     0.162190000000    -0.250468   
O16      O      0.071540000000     0.619330000000     0.161440000000    -0.252456   
O17      O      0.398070000000     0.963740000000     0.919250000000    -0.245861   
O18      O      0.294990000000     0.904450000000     0.814260000000    -0.25025    
O19      O      0.343630000000     0.863510000000     0.941250000000    -0.249856   
O20      O      0.449850000000     0.826850000000     0.840680000000    -0.247027   
O21      O      0.419960000000     0.868250000000     0.776130000000    -0.250026   
O22      O      0.341210000000     0.806920000000     0.881080000000    -0.248736   
O23      O      0.466010000000     0.927860000000     0.885580000000    -0.249318   
O24      O      0.350440000000     0.967680000000     0.809450000000    -0.250215   
O25      O      0.612500000000     0.194240000000     0.182970000000    -0.245137   
O26      O      0.655370000000     0.033160000000     0.154680000000    -0.251245   
O27      O      0.658400000000     0.206930000000     0.085110000000    -0.24885    
O28      O      0.550720000000     0.105700000000     0.078240000000    -0.245647   
O29      O      0.621130000000     0.075660000000     0.043330000000    -0.24937    
O30      O      0.716870000000     0.146210000000     0.081150000000    -0.249799   
O31      O      0.553090000000     0.135180000000     0.174820000000    -0.243654   
O32      O      0.693260000000     0.096380000000     0.193790000000    -0.252092   
O33      O      0.397400000000     0.286910000000     0.333350000000    -0.247856   
O34      O      0.355180000000     0.309300000000     0.436250000000    -0.24883    
O35      O      0.326060000000     0.383820000000     0.289190000000    -0.252158   
O36      O      0.452960000000     0.427160000000     0.389060000000    -0.24318    
O37      O      0.394840000000     0.422940000000     0.448380000000    -0.248615   
O38      O      0.341600000000     0.454570000000     0.330160000000    -0.252646   
O39      O      0.459880000000     0.343670000000     0.333700000000    -0.245212   
O40      O      0.289000000000     0.353770000000     0.408790000000    -0.250612   
O41      O      0.704190000000     0.584080000000     0.629800000000    -0.244778   
O42      O      0.535480000000     0.596900000000     0.584690000000    -0.251196   
O43      O      0.707370000000     0.677380000000     0.593410000000    -0.242788   
O44      O      0.597650000000     0.668190000000     0.692520000000    -0.252295   
O45      O      0.580230000000     0.715540000000     0.627480000000    -0.254314   
O46      O      0.650540000000     0.680950000000     0.533310000000    -0.245974   
O47      O      0.633410000000     0.550980000000     0.660190000000    -0.249698   
O48      O      0.597200000000     0.589130000000     0.529750000000    -0.248705   
O49      O      0.938520000000     0.768560000000     0.325460000000    -0.252192   
O50      O      0.975400000000     0.891810000000     0.376340000000    -0.249636   
O51      O      0.877540000000     0.790650000000     0.423030000000    -0.248401   
O52      O      0.827650000000     0.866100000000     0.282520000000    -0.246973   
O53      O      0.848910000000     0.932350000000     0.327560000000    -0.251041   
O54      O      0.811680000000     0.800600000000     0.372550000000    -0.250722   
O55      O      0.949120000000     0.834100000000     0.275520000000    -0.249517   
O56      O      0.909130000000     0.903920000000     0.425240000000    -0.248674   
O57      O      0.183090000000     0.112310000000     0.671860000000    -0.249149   
O58      O      0.127630000000     0.193420000000     0.543260000000    -0.250735   
O59      O      0.094250000000     0.204640000000     0.658120000000    -0.250374   
O60      O      0.038090000000     0.072160000000     0.578750000000    -0.242593   
O61      O      0.108540000000     0.066950000000     0.533430000000    -0.25091    
O62      O      0.026600000000     0.163290000000     0.629810000000    -0.245688   
O63      O      0.125460000000     0.051700000000     0.667960000000    -0.251641   
O64      O      0.195130000000     0.146680000000     0.561260000000    -0.246519   
S1       S      0.074150000000     0.936270000000     0.382780000000    -0.0110826  
S2       S      0.812680000000     0.703370000000     0.588600000000    -0.00925707 
S3       S      0.115990000000     0.264030000000     0.465150000000    -0.0115572  
S4       S      0.584520000000     0.575770000000     0.426460000000    -0.011182   
S5       S      0.733350000000     0.857230000000     0.229500000000    -0.011076   
S6       S      0.474890000000     0.115540000000     0.246770000000    -0.0136479  
S7       S      0.116510000000     0.964040000000     0.728550000000    -0.0109092  
S8       S      0.482030000000     0.884980000000     0.689830000000    -0.0134669  
S9       S      0.561100000000     0.982560000000     0.872230000000    -0.0141915  
S10      S      0.997810000000     0.599190000000     0.236550000000    -0.0123858  
S11      S      0.270060000000     0.765990000000     0.106350000000    -0.0130111  
S12      S      0.209620000000     0.430950000000     0.129790000000    -0.0101074  
S13      S      0.856830000000     0.264850000000     0.695500000000    -0.016605   
S14      S      0.865170000000     0.205290000000     0.956410000000    -0.0132378  
S15      S      0.803270000000     0.539570000000     0.625300000000    -0.00992452 
S16      S      0.027170000000     0.372750000000     0.973910000000    -0.00987504 


