data_structure

_audit_creation_method RASPA-1.0
_audit_creation_date 2023-5-22
_audit_author_name 'Poobodin Mano'

_cell_length_a    26.9241
_cell_length_b    25.8395
_cell_length_c    24.4879
_cell_angle_alpha 90
_cell_angle_beta  90
_cell_angle_gamma 90
_cell_volume      17036.4

_symmetry_cell_setting          triclinic
_symmetry_space_group_name_Hall 'P 1'
_symmetry_space_group_name_H-M  'P 1'
_symmetry_Int_Tables_number     1

_symmetry_equiv_pos_as_xyz 'x,y,z'

loop_
_atom_site_label
_atom_site_type_symbol
_atom_site_fract_x
_atom_site_fract_y
_atom_site_fract_z
_atom_site_charge
C1       C      0.777560000000     0.428170000000     0.842840000000     0.339256   
C2       C      0.906990000000     0.445220000000     0.965290000000     0.344591   
C3       C      0.790670000000     0.294970000000     0.965410000000     0.340461   
C4       C      0.920600000000     0.308970000000     0.845610000000     0.338679   
C5       C      0.047760000000     0.541310000000     0.086980000000     0.338821   
C6       C      0.170600000000     0.538730000000     0.209380000000     0.337636   
C7       C      0.180690000000     0.675320000000     0.079260000000     0.3424     
C8       C      0.055830000000     0.690370000000     0.194630000000     0.338855   
C9       C      0.299600000000     0.793050000000     0.944710000000     0.340663   
C10      C      0.285010000000     0.936120000000     0.817700000000     0.344407   
C11      C      0.413690000000     0.930050000000     0.950190000000     0.345283   
C12      C      0.408150000000     0.811350000000     0.799560000000     0.344762   
C13      C      0.650470000000     0.197880000000     0.086130000000     0.345649   
C14      C      0.534970000000     0.063460000000     0.060860000000     0.341261   
C15      C      0.650160000000     0.055490000000     0.206950000000     0.344488   
C16      C      0.520990000000     0.180740000000     0.211680000000     0.343642   
C17      C      0.294590000000     0.429210000000     0.345450000000     0.344417   
C18      C      0.278830000000     0.301490000000     0.483310000000     0.344576   
C19      C      0.414560000000     0.295420000000     0.359740000000     0.340084   
C20      C      0.408190000000     0.425560000000     0.493380000000     0.345253   
C21      C      0.674970000000     0.563950000000     0.714660000000     0.345051   
C22      C      0.545780000000     0.687930000000     0.705260000000     0.341267   
C23      C      0.674980000000     0.682060000000     0.572330000000     0.341295   
C24      C      0.547410000000     0.553400000000     0.580810000000     0.339425   
C25      C      0.773160000000     0.915640000000     0.307290000000     0.338768   
C26      C      0.915050000000     0.799350000000     0.307420000000     0.343453   
C27      C      0.895810000000     0.943840000000     0.429340000000     0.339353   
C28      C      0.803740000000     0.781520000000     0.439610000000     0.345421   
C29      C      0.017490000000     0.170250000000     0.715530000000     0.342508   
C30      C      0.143930000000     0.034710000000     0.695880000000     0.338153   
C31      C      0.013550000000     0.047870000000     0.573560000000     0.34407    
C32      C      0.137880000000     0.188940000000     0.593620000000     0.340758   
C33      C      0.968940000000     0.000890000000     0.441830000000    -0.0154641  
C34      C      0.896610000000     0.007650000000     0.504910000000    -0.044873   
C35      C      0.004140000000     0.995480000000     0.490440000000    -0.0142962  
C36      C      0.931180000000     0.003390000000     0.554690000000     0.0918641  
C37      C      0.696590000000     0.714650000000     0.480270000000    -0.0168449  
C38      C      0.745430000000     0.742850000000     0.563170000000    -0.0472701  
C39      C      0.745430000000     0.708340000000     0.448900000000    -0.0128872  
C40      C      0.793580000000     0.735110000000     0.530680000000     0.0935078  
C41      C      0.157900000000     0.243160000000     0.513140000000    -0.015458   
C42      C      0.201950000000     0.257420000000     0.601440000000    -0.0445479  
C43      C      0.207450000000     0.242350000000     0.482830000000    -0.014121   
C44      C      0.252310000000     0.258470000000     0.571780000000     0.0916711  
C45      C      0.477000000000     0.540620000000     0.517020000000    -0.016559   
C46      C      0.524980000000     0.464300000000     0.552780000000    -0.0467212  
C47      C      0.428420000000     0.512190000000     0.529510000000    -0.0134917  
C48      C      0.475820000000     0.436590000000     0.565340000000     0.0926936  
C49      C      0.751070000000     0.964090000000     0.223600000000    -0.0159465  
C50      C      0.685940000000     0.943380000000     0.293040000000    -0.0451972  
C51      C      0.733740000000     0.020260000000     0.222360000000    -0.0135298  
C52      C      0.666660000000     0.999450000000     0.290400000000     0.0916206  
C53      C      0.492230000000     0.283410000000     0.307200000000    -0.0158886  
C54      C      0.438170000000     0.207380000000     0.329050000000    -0.0455105  
C55      C      0.495710000000     0.265500000000     0.247930000000    -0.0139803  
C56      C      0.442930000000     0.188090000000     0.269830000000     0.09194    
C57      C      0.163230000000     0.977800000000     0.774590000000    -0.0162684  
C58      C      0.221250000000     0.982750000000     0.694900000000    -0.0458465  
C59      C      0.206930000000     0.985760000000     0.813660000000    -0.0138417  
C60      C      0.265220000000     0.990840000000     0.733960000000     0.0921582  
C61      C      0.473930000000     0.697790000000     0.767470000000    -0.0163252  
C62      C      0.523490000000     0.775610000000     0.737840000000    -0.0467748  
C63      C      0.426000000000     0.727560000000     0.755550000000    -0.0135476  
C64      C      0.474820000000     0.804440000000     0.726090000000     0.0926501  
C65      C      0.461490000000     0.051700000000     0.001150000000    -0.0160695  
C66      C      0.530510000000     0.986900000000     0.000150000000    -0.0457544  
C67      C      0.423630000000     0.007920000000     0.007160000000    -0.0140857  
C68      C      0.492700000000     0.942690000000     0.005750000000     0.0921433  
C69      C      0.036690000000     0.745040000000     0.275050000000    -0.0155352  
C70      C      0.989710000000     0.756700000000     0.188120000000    -0.0451282  
C71      C      0.987980000000     0.742210000000     0.306860000000    -0.014011   
C72      C      0.940180000000     0.754880000000     0.219230000000     0.0924428  
C73      C      0.235150000000     0.725280000000     0.952920000000    -0.0153033  
C74      C      0.296220000000     0.739190000000     0.028270000000    -0.0447219  
C75      C      0.192820000000     0.723870000000     0.994250000000    -0.0141998  
C76      C      0.254390000000     0.735820000000     0.070940000000     0.0919083  
C77      C      0.183810000000     0.495130000000     0.298240000000    -0.016454   
C78      C      0.234620000000     0.470190000000     0.216690000000    -0.0458738  
C79      C      0.230830000000     0.496460000000     0.333160000000    -0.0135351  
C80      C      0.281880000000     0.470360000000     0.252010000000     0.0922133  
C81      C      0.965340000000     0.291770000000     0.759200000000    -0.0159914  
C82      C      0.982840000000     0.238300000000     0.842170000000    -0.0456727  
C83      C      0.958770000000     0.242600000000     0.725400000000    -0.0138707  
C84      C      0.977840000000     0.188620000000     0.807990000000     0.0921043  
C85      C      0.720670000000     0.232700000000     0.968760000000    -0.0164749  
C86      C      0.770380000000     0.251850000000     0.052980000000    -0.0464024  
C87      C      0.672710000000     0.242770000000     0.000640000000    -0.013502   
C88      C      0.722110000000     0.262370000000     0.084510000000     0.0929448  
C89      C      0.737720000000     0.447060000000     0.753970000000    -0.0161024  
C90      C      0.709760000000     0.492930000000     0.838700000000    -0.0458774  
C91      C      0.741130000000     0.498840000000     0.724130000000    -0.0135142  
C92      C      0.712010000000     0.544920000000     0.808290000000     0.0923902  
C93      C      0.025580000000     0.491930000000     0.003760000000    -0.016403   
C94      C      0.970260000000     0.489530000000     0.086370000000    -0.046674   
C95      C      0.980210000000     0.502530000000     0.967820000000    -0.0135205  
C96      C      0.925080000000     0.499990000000     0.049630000000     0.0929981  
Cd1      Cd     0.848940000000     0.369560000000     0.905420000000     0.507725   
Cd2      Cd     0.114550000000     0.610730000000     0.143070000000     0.507902   
Cd3      Cd     0.350880000000     0.868870000000     0.878920000000     0.5066     
Cd4      Cd     0.588200000000     0.123410000000     0.141640000000     0.506368   
Cd5      Cd     0.348670000000     0.362720000000     0.420220000000     0.506099   
Cd6      Cd     0.610740000000     0.622070000000     0.642540000000     0.508282   
Cd7      Cd     0.846640000000     0.861040000000     0.371180000000     0.507515   
Cd8      Cd     0.078610000000     0.108570000000     0.643460000000     0.506709   
H1       H      0.010090000000     0.953540000000     0.498250000000     0.0493155  
H2       H      0.984550000000     0.979620000000     0.406310000000     0.0531394  
H3       H      0.932060000000     0.961820000000     0.566640000000     0.0275266  
H4       H      0.859720000000     0.990970000000     0.515320000000     0.063998   
H5       H      0.040610000000     0.012300000000     0.478730000000     0.0543285  
H6       H      0.966660000000     0.042560000000     0.430720000000     0.0479041  
H7       H      0.891030000000     0.049340000000     0.495300000000     0.0546019  
H8       H      0.922430000000     0.020600000000     0.637560000000     0.10834    
H9       H      0.911980000000     0.073000000000     0.593520000000     0.106644   
H10      H      0.758170000000     0.667660000000     0.453840000000     0.0462509  
H11      H      0.669640000000     0.685240000000     0.465430000000     0.0538953  
H12      H      0.804640000000     0.693940000000     0.536480000000     0.0270887  
H13      H      0.752500000000     0.733670000000     0.606850000000     0.0651363  
H14      H      0.738370000000     0.714730000000     0.404700000000     0.0531812  
H15      H      0.681120000000     0.753540000000     0.470850000000     0.0518281  
H16      H      0.734370000000     0.784260000000     0.560580000000     0.0578216  
H17      H      0.867090000000     0.760360000000     0.533590000000     0.108125   
H18      H      0.823700000000     0.806630000000     0.554840000000     0.108753   
H19      H      0.219710000000     0.201410000000     0.479000000000     0.0501926  
H20      H      0.131010000000     0.217930000000     0.491280000000     0.0537087  
H21      H      0.267940000000     0.218640000000     0.574350000000     0.0278865  
H22      H      0.207320000000     0.241980000000     0.643430000000     0.0637102  
H23      H      0.201060000000     0.257300000000     0.440850000000     0.0536702  
H24      H      0.143220000000     0.283390000000     0.512280000000     0.0478327  
H25      H      0.188090000000     0.297830000000     0.605300000000     0.0546694  
H26      H      0.322720000000     0.284940000000     0.594580000000     0.107818   
H27      H      0.276320000000     0.332540000000     0.595010000000     0.105712   
H28      H      0.416280000000     0.523300000000     0.571320000000     0.0466814  
H29      H      0.471020000000     0.582910000000     0.522110000000     0.0536213  
H30      H      0.465340000000     0.447750000000     0.607730000000     0.0269705  
H31      H      0.553410000000     0.452290000000     0.583190000000     0.0647877  
H32      H      0.399410000000     0.525750000000     0.500560000000     0.0528887  
H33      H      0.486790000000     0.533420000000     0.473560000000     0.0500711  
H34      H      0.538120000000     0.451870000000     0.511760000000     0.0561806  
H35      H      0.452030000000     0.360840000000     0.578870000000     0.107302   
H36      H      0.496240000000     0.367140000000     0.526790000000     0.107282   
H37      H      0.756170000000     0.042500000000     0.252430000000     0.0471657  
H38      H      0.791540000000     0.962700000000     0.214740000000     0.0525683  
H39      H      0.685350000000     0.021090000000     0.323930000000     0.0265442  
H40      H      0.679820000000     0.927870000000     0.334860000000     0.0643956  
H41      H      0.742020000000     0.036370000000     0.181270000000     0.0525304  
H42      H      0.731460000000     0.942640000000     0.190650000000     0.0486366  
H43      H      0.663840000000     0.919310000000     0.264250000000     0.0554359  
H44      H      0.600540000000     0.035260000000     0.314170000000     0.10684    
H45      H      0.592850000000     0.983630000000     0.268580000000     0.105809   
H46      H      0.465680000000     0.284850000000     0.224350000000     0.0477134  
H47      H      0.494640000000     0.326340000000     0.308470000000     0.0520116  
H48      H      0.410480000000     0.203880000000     0.247080000000     0.0270716  
H49      H      0.401260000000     0.195880000000     0.345430000000     0.0641114  
H50      H      0.531720000000     0.279060000000     0.230980000000     0.0524213  
H51      H      0.524640000000     0.267570000000     0.329870000000     0.0473142  
H52      H      0.467010000000     0.187930000000     0.354300000000     0.0543515  
H53      H      0.430370000000     0.117340000000     0.230960000000     0.108666   
H54      H      0.470510000000     0.113950000000     0.287210000000     0.106151   
H55      H      0.210030000000     0.027850000000     0.822530000000     0.0481226  
H56      H      0.129180000000     0.994740000000     0.793020000000     0.0528314  
H57      H      0.269530000000     0.033410000000     0.739230000000     0.0276996  
H58      H      0.228810000000     0.003180000000     0.655800000000     0.0647955  
H59      H      0.198340000000     0.965900000000     0.852780000000     0.053636   
H60      H      0.157060000000     0.935480000000     0.769820000000     0.048613   
H61      H      0.217950000000     0.940710000000     0.685760000000     0.0551241  
H62      H      0.342370000000     0.984450000000     0.727930000000     0.107446   
H63      H      0.309570000000     0.930810000000     0.702860000000     0.105831   
H64      H      0.414890000000     0.719410000000     0.712640000000     0.0465224  
H65      H      0.467590000000     0.655990000000     0.759320000000     0.052558   
H66      H      0.464890000000     0.795630000000     0.682920000000     0.0273251  
H67      H      0.552520000000     0.788970000000     0.708770000000     0.064709   
H68      H      0.396060000000     0.712610000000     0.782500000000     0.0526412  
H69      H      0.482760000000     0.702200000000     0.811590000000     0.0491495  
H70      H      0.536070000000     0.785600000000     0.779810000000     0.0551858  
H71      H      0.450710000000     0.880810000000     0.718530000000     0.106713   
H72      H      0.496570000000     0.871570000000     0.768270000000     0.106145   
H73      H      0.416160000000     0.002230000000     0.051430000000     0.0478736  
H74      H      0.447050000000     0.086860000000     0.021930000000     0.0528183  
H75      H      0.488610000000     0.934930000000     0.050260000000     0.0271106  
H76      H      0.565890000000     0.975460000000     0.020230000000     0.0640153  
H77      H      0.388280000000     0.020450000000     0.987800000000     0.0530396  
H78      H      0.465510000000     0.060730000000     0.956970000000     0.0481982  
H79      H      0.538410000000     0.993020000000     0.956020000000     0.0546569  
H80      H      0.494120000000     0.862860000000     0.992360000000     0.108703   
H81      H      0.516540000000     0.899970000000     0.937680000000     0.10571    
H82      H      0.977610000000     0.700760000000     0.311350000000     0.0491812  
H83      H      0.065170000000     0.721170000000     0.296160000000     0.0536704  
H84      H      0.926940000000     0.714070000000     0.217810000000     0.0281353  
H85      H      0.984140000000     0.741120000000     0.146220000000     0.0647297  
H86      H      0.994700000000     0.757720000000     0.348550000000     0.0534259  
H87      H      0.049680000000     0.785900000000     0.275190000000     0.0480847  
H88      H      0.001420000000     0.797830000000     0.184100000000     0.0551315  
H89      H      0.867730000000     0.776830000000     0.199060000000     0.109718   
H90      H      0.911560000000     0.826870000000     0.194990000000     0.108014   
H91      H      0.177010000000     0.763510000000     0.997600000000     0.0489468  
H92      H      0.220950000000     0.741070000000     0.913680000000     0.0535829  
H93      H      0.242690000000     0.776220000000     0.080160000000     0.0270199  
H94      H      0.325610000000     0.765700000000     0.043670000000     0.0637176  
H95      H      0.163140000000     0.698400000000     0.977700000000     0.0544956  
H96      H      0.247780000000     0.684910000000     0.945470000000     0.0487844  
H97      H      0.313200000000     0.700180000000     0.023540000000     0.0555403  
H98      H      0.255110000000     0.723960000000     0.155410000000     0.108868   
H99      H      0.279920000000     0.672830000000     0.117180000000     0.106471   
H100     H      0.245410000000     0.536740000000     0.333040000000     0.048395   
H101     H      0.157030000000     0.524140000000     0.314270000000     0.0542214  
H102     H      0.298450000000     0.509680000000     0.248250000000     0.0266211  
H103     H      0.244480000000     0.481730000000     0.174300000000     0.0641616  
H104     H      0.220440000000     0.486950000000     0.375920000000     0.0536806  
H105     H      0.166590000000     0.456210000000     0.302420000000     0.04909    
H106     H      0.219760000000     0.430040000000     0.215090000000     0.0556299  
H107     H      0.353250000000     0.439810000000     0.243050000000     0.108805   
H108     H      0.305260000000     0.394660000000     0.234540000000     0.106702   
H109     H      0.918750000000     0.231920000000     0.725840000000     0.0484903  
H110     H      0.941260000000     0.322730000000     0.742090000000     0.05447    
H111     H      0.938470000000     0.175870000000     0.811700000000     0.0274025  
H112     H      0.970720000000     0.230350000000     0.884770000000     0.0644295  
H113     H      0.968990000000     0.251410000000     0.682430000000     0.0530544  
H114     H      0.004600000000     0.304660000000     0.755430000000     0.0486706  
H115     H      0.022700000000     0.249600000000     0.843490000000     0.0551814  
H116     H      0.999760000000     0.111630000000     0.817520000000     0.109951   
H117     H      0.047240000000     0.156950000000     0.828180000000     0.108032   
H118     H      0.662500000000     0.284160000000     0.995180000000     0.0477497  
H119     H      0.714980000000     0.243590000000     0.925300000000     0.0532428  
H120     H      0.713920000000     0.304360000000     0.079580000000     0.0279337  
H121     H      0.800670000000     0.276320000000     0.069900000000     0.0646509  
H122     H      0.642430000000     0.219140000000     0.982510000000     0.0532814  
H123     H      0.728640000000     0.190500000000     0.970280000000     0.0494699  
H124     H      0.780990000000     0.210630000000     0.059020000000     0.0557744  
H125     H      0.699870000000     0.265300000000     0.166080000000     0.109037   
H126     H      0.740280000000     0.214140000000     0.150650000000     0.1078     
H127     H      0.779670000000     0.513780000000     0.728580000000     0.0485779  
H128     H      0.766030000000     0.420210000000     0.736960000000     0.0544838  
H129     H      0.749760000000     0.561090000000     0.815660000000     0.0274137  
H130     H      0.718420000000     0.499320000000     0.882590000000     0.0639375  
H131     H      0.734550000000     0.491910000000     0.679930000000     0.0542023  
H132     H      0.700440000000     0.430140000000     0.745990000000     0.0495704  
H133     H      0.671210000000     0.477620000000     0.836070000000     0.0553306  
H134     H      0.682180000000     0.618650000000     0.820050000000     0.108802   
H135     H      0.639120000000     0.568110000000     0.826410000000     0.107726   
H136     H      0.975720000000     0.545180000000     0.964080000000     0.0481886  
H137     H      0.058570000000     0.511150000000     0.985480000000     0.0545398  
H138     H      0.920780000000     0.542810000000     0.047510000000     0.0280825  
H139     H      0.963790000000     0.507140000000     0.127200000000     0.06506    
H140     H      0.987490000000     0.487100000000     0.926230000000     0.0534476  
H141     H      0.032570000000     0.449510000000     0.003930000000     0.0497864  
H142     H      0.974050000000     0.447010000000     0.092090000000     0.0560372  
H143     H      0.848260000000     0.490400000000     0.054000000000     0.109331   
H144     H      0.882470000000     0.438920000000     0.081450000000     0.109171   
N1       N      0.982880000000     0.019360000000     0.540200000000    -0.165226   
N2       N      0.919350000000     0.982460000000     0.457340000000    -0.149287   
N3       N      0.909160000000     0.033030000000     0.599620000000    -0.196902   
N4       N      0.783260000000     0.743530000000     0.471720000000    -0.166175   
N5       N      0.705290000000     0.711020000000     0.539620000000    -0.148389   
N6       N      0.833300000000     0.767420000000     0.553290000000    -0.197069   
N7       N      0.246050000000     0.271670000000     0.512780000000    -0.164905   
N8       N      0.165440000000     0.227400000000     0.570120000000    -0.148921   
N9       N      0.285330000000     0.293650000000     0.601580000000    -0.19692    
N10      N      0.436450000000     0.455670000000     0.527680000000    -0.166081   
N11      N      0.517270000000     0.520750000000     0.551960000000    -0.148262   
N12      N      0.483430000000     0.380450000000     0.564590000000    -0.197018   
N13      N      0.680700000000     0.024210000000     0.237560000000    -0.165667   
N14      N      0.738400000000     0.940880000000     0.276530000000    -0.148924   
N15      N      0.613120000000     0.998990000000     0.301240000000    -0.196824   
N16      N      0.489010000000     0.208810000000     0.243970000000    -0.16539    
N17      N      0.446310000000     0.263600000000     0.331980000000    -0.149459   
N18      N      0.439310000000     0.131510000000     0.269740000000    -0.196926   
N19      N      0.253830000000     0.967910000000     0.788480000000    -0.16537    
N20      N      0.174960000000     0.000180000000     0.720890000000    -0.148779   
N21      N      0.310470000000     0.970980000000     0.708140000000    -0.196838   
N22      N      0.434900000000     0.783610000000     0.761860000000    -0.166465   
N23      N      0.515200000000     0.719260000000     0.735070000000    -0.149084   
N24      N      0.482550000000     0.860440000000     0.730200000000    -0.196789   
N25      N      0.443300000000     0.959100000000     0.984190000000    -0.165569   
N26      N      0.509850000000     0.035020000000     0.022750000000    -0.149281   
N27      N      0.513190000000     0.896140000000     0.980050000000    -0.197028   
N28      N      0.947480000000     0.769400000000     0.277700000000    -0.164979   
N29      N      0.028260000000     0.728580000000     0.218460000000    -0.148877   
N30      N      0.904320000000     0.787360000000     0.190020000000    -0.197047   
N31      N      0.210490000000     0.707490000000     0.048800000000    -0.164786   
N32      N      0.276730000000     0.755500000000     0.974930000000    -0.148932   
N33      N      0.275120000000     0.712880000000     0.120730000000    -0.197017   
N34      N      0.269240000000     0.461600000000     0.310610000000    -0.165088   
N35      N      0.196370000000     0.503960000000     0.240560000000    -0.148431   
N36      N      0.317100000000     0.432900000000     0.229230000000    -0.197088   
N37      N      0.987910000000     0.199650000000     0.749190000000    -0.165244   
N38      N      0.954530000000     0.280630000000     0.816850000000    -0.148548   
N39      N      0.009410000000     0.148380000000     0.831910000000    -0.197038   
N40      N      0.680620000000     0.232510000000     0.059380000000    -0.165597   
N41      N      0.762140000000     0.260880000000     0.994320000000    -0.148853   
N42      N      0.730000000000     0.252470000000     0.142780000000    -0.197108   
N43      N      0.706240000000     0.536570000000     0.748340000000    -0.165316   
N44      N      0.743520000000     0.455350000000     0.813030000000    -0.148788   
N45      N      0.675720000000     0.580490000000     0.832350000000    -0.197135   
N46      N      0.935250000000     0.480570000000     0.993470000000    -0.165752   
N47      N      0.015740000000     0.509130000000     0.060080000000    -0.148273   
N48      N      0.880190000000     0.478890000000     0.075080000000    -0.197049   
O1       O      0.918200000000     0.431050000000     0.917400000000    -0.255075   
O2       O      0.911040000000     0.299810000000     0.895330000000    -0.251574   
O3       O      0.783090000000     0.435160000000     0.893630000000    -0.253415   
O4       O      0.782910000000     0.304110000000     0.915370000000    -0.253495   
O5       O      0.825980000000     0.319740000000     0.987330000000    -0.248241   
O6       O      0.805270000000     0.394360000000     0.821240000000    -0.245033   
O7       O      0.868530000000     0.424440000000     0.985000000000    -0.254323   
O8       O      0.896910000000     0.345970000000     0.823980000000    -0.243814   
O9       O      0.179700000000     0.545100000000     0.159100000000    -0.252402   
O10      O      0.090140000000     0.667040000000     0.220030000000    -0.246409   
O11      O      0.039510000000     0.556590000000     0.135240000000    -0.250951   
O12      O      0.187880000000     0.666730000000     0.129460000000    -0.259079   
O13      O      0.143050000000     0.653240000000     0.058840000000    -0.247822   
O14      O      0.087230000000     0.557800000000     0.064950000000    -0.245917   
O15      O      0.135880000000     0.566030000000     0.228980000000    -0.246423   
O16      O      0.048650000000     0.676420000000     0.145750000000    -0.251474   
O17      O      0.326810000000     0.921750000000     0.800000000000    -0.260722   
O18      O      0.415970000000     0.858680000000     0.809190000000    -0.257369   
O19      O      0.284680000000     0.805290000000     0.897400000000    -0.246959   
O20      O      0.370660000000     0.944860000000     0.936300000000    -0.254308   
O21      O      0.427030000000     0.886910000000     0.930920000000    -0.258276   
O22      O      0.337560000000     0.816880000000     0.961970000000    -0.252423   
O23      O      0.273670000000     0.919360000000     0.864710000000    -0.24971    
O24      O      0.373820000000     0.790720000000     0.827330000000    -0.254283   
O25      O      0.576270000000     0.048880000000     0.080110000000    -0.253317   
O26      O      0.515410000000     0.133010000000     0.202210000000    -0.256293   
O27      O      0.616090000000     0.173710000000     0.061650000000    -0.252516   
O28      O      0.664670000000     0.075500000000     0.162600000000    -0.252835   
O29      O      0.606400000000     0.067070000000     0.221090000000    -0.260364   
O30      O      0.655080000000     0.187660000000     0.136320000000    -0.254532   
O31      O      0.518310000000     0.105910000000     0.078960000000    -0.250758   
O32      O      0.558040000000     0.201550000000     0.188660000000    -0.254205   
O33      O      0.273680000000     0.308750000000     0.432460000000    -0.250837   
O34      O      0.413650000000     0.377180000000     0.489360000000    -0.257955   
O35      O      0.283250000000     0.425470000000     0.395500000000    -0.249959   
O36      O      0.375480000000     0.278590000000     0.382320000000    -0.252174   
O37      O      0.422770000000     0.343400000000     0.364770000000    -0.251599   
O38      O      0.330950000000     0.401780000000     0.330390000000    -0.258211   
O39      O      0.316440000000     0.322770000000     0.504450000000    -0.259257   
O40      O      0.374720000000     0.444830000000     0.463310000000    -0.253369   
O41      O      0.540580000000     0.639250000000     0.704540000000    -0.251792   
O42      O      0.541940000000     0.602050000000     0.579400000000    -0.248385   
O43      O      0.644750000000     0.597480000000     0.732130000000    -0.258248   
O44      O      0.681010000000     0.679990000000     0.623480000000    -0.250703   
O45      O      0.639080000000     0.656050000000     0.553370000000    -0.250176   
O46      O      0.674880000000     0.557230000000     0.663420000000    -0.249415   
O47      O      0.581010000000     0.705930000000     0.676820000000    -0.251025   
O48      O      0.582390000000     0.536710000000     0.610530000000    -0.248812   
O49      O      0.875580000000     0.817870000000     0.287500000000    -0.255184   
O50      O      0.834870000000     0.813950000000     0.457440000000    -0.257202   
O51      O      0.818140000000     0.912560000000     0.292590000000    -0.250651   
O52      O      0.915370000000     0.922090000000     0.388350000000    -0.250804   
O53      O      0.853300000000     0.927520000000     0.443100000000    -0.25097    
O54      O      0.762220000000     0.893700000000     0.351910000000    -0.249649   
O55      O      0.922570000000     0.809540000000     0.357320000000    -0.252282   
O56      O      0.792280000000     0.786360000000     0.389740000000    -0.252693   
O57      O      0.103910000000     0.049630000000     0.717830000000    -0.248442   
O58      O      0.104970000000     0.164440000000     0.567230000000    -0.247222   
O59      O      0.042060000000     0.131710000000     0.732250000000    -0.251991   
O60      O      0.000210000000     0.064520000000     0.619720000000    -0.261249   
O61      O      0.057660000000     0.058870000000     0.560090000000    -0.250239   
O62      O      0.021600000000     0.180070000000     0.665040000000    -0.253654   
O63      O      0.153600000000     0.053750000000     0.649480000000    -0.250984   
O64      O      0.143540000000     0.175980000000     0.643120000000    -0.252254   


