data_structure

_audit_creation_method RASPA-1.0
_audit_creation_date 2023-5-22
_audit_author_name 'Poobodin Mano'

_cell_length_a    24.8801
_cell_length_b    27.286
_cell_length_c    24.4373
_cell_angle_alpha 90
_cell_angle_beta  90
_cell_angle_gamma 90
_cell_volume      16590

_symmetry_cell_setting          triclinic
_symmetry_space_group_name_Hall 'P 1'
_symmetry_space_group_name_H-M  'P 1'
_symmetry_Int_Tables_number     1

_symmetry_equiv_pos_as_xyz 'x,y,z'

loop_
_atom_site_label
_atom_site_type_symbol
_atom_site_fract_x
_atom_site_fract_y
_atom_site_fract_z
_atom_site_charge
C1       C      0.958760000000     0.373110000000     0.956640000000     0.342897   
C2       C      0.817140000000     0.381750000000     0.843100000000     0.342334   
C3       C      0.943510000000     0.242770000000     0.829180000000     0.341922   
C4       C      0.822600000000     0.242880000000     0.963570000000     0.343752   
C5       C      0.068130000000     0.655390000000     0.191400000000     0.342527   
C6       C      0.189830000000     0.515600000000     0.190540000000     0.341848   
C7       C      0.060820000000     0.520510000000     0.062990000000     0.338726   
C8       C      0.193600000000     0.650480000000     0.061640000000     0.338945   
C9       C      0.310030000000     0.794710000000     0.966350000000     0.342757   
C10      C      0.310620000000     0.914660000000     0.834170000000     0.344748   
C11      C      0.454420000000     0.906540000000     0.964810000000     0.341794   
C12      C      0.444030000000     0.787030000000     0.826810000000     0.344178   
C13      C      0.556370000000     0.035120000000     0.098750000000     0.337763   
C14      C      0.688720000000     0.014490000000     0.228140000000     0.340714   
C15      C      0.693520000000     0.154180000000     0.110720000000     0.339094   
C16      C      0.569230000000     0.155770000000     0.242740000000     0.340384   
C17      C      0.465340000000     0.431440000000     0.466950000000     0.339792   
C18      C      0.332110000000     0.308020000000     0.466740000000     0.342621   
C19      C      0.333550000000     0.430470000000     0.327180000000     0.337604   
C20      C      0.459810000000     0.308140000000     0.325140000000     0.346758   
C21      C      0.723070000000     0.532910000000     0.734590000000     0.340311   
C22      C      0.591850000000     0.664130000000     0.741570000000     0.338828   
C23      C      0.722110000000     0.649940000000     0.600640000000     0.338718   
C24      C      0.568820000000     0.545080000000     0.614370000000     0.345053   
C25      C      0.945070000000     0.755470000000     0.335200000000     0.338649   
C26      C      0.836200000000     0.908780000000     0.339430000000     0.343561   
C27      C      0.816710000000     0.779720000000     0.465020000000     0.341786   
C28      C      0.980680000000     0.883250000000     0.451120000000     0.343064   
C29      C      0.078800000000     0.155640000000     0.685010000000     0.33753    
C30      C      0.219680000000     0.039010000000     0.687730000000     0.337494   
C31      C      0.085870000000     0.026440000000     0.558550000000     0.341404   
C32      C      0.209800000000     0.162490000000     0.548800000000     0.341947   
C33      C      0.018480000000     0.959670000000     0.558690000000    -0.0163256  
C34      C      0.056690000000     0.991590000000     0.469770000000    -0.0471894  
C35      C      0.025120000000     0.907270000000     0.537260000000    -0.0134161  
C36      C      0.063320000000     0.938420000000     0.450070000000     0.0810636  
C37      C      0.065950000000     0.935890000000     0.387230000000    -0.193138   
C38      C      0.791790000000     0.713560000000     0.586130000000    -0.0163328  
C39      C      0.751600000000     0.668900000000     0.506070000000    -0.0465457  
C40      C      0.781110000000     0.762410000000     0.557230000000    -0.0136055  
C41      C      0.740420000000     0.718350000000     0.478020000000     0.0801794  
C42      C      0.735260000000     0.711720000000     0.415710000000    -0.192882   
C43      C      0.296370000000     0.188370000000     0.507820000000    -0.0160667  
C44      C      0.212800000000     0.238010000000     0.492470000000    -0.0464618  
C45      C      0.326020000000     0.234860000000     0.525650000000    -0.0138369  
C46      C      0.242900000000     0.284420000000     0.510990000000     0.0802838  
C47      C      0.215890000000     0.330550000000     0.487410000000    -0.193363   
C48      C      0.529270000000     0.438750000000     0.544160000000    -0.0167043  
C49      C      0.501920000000     0.513350000000     0.490110000000    -0.0468953  
C50      C      0.520700000000     0.467570000000     0.597150000000    -0.0130995  
C51      C      0.493060000000     0.541240000000     0.544110000000     0.0807051  
C52      C      0.496650000000     0.596910000000     0.534760000000    -0.19317    
C53      C      0.714220000000     0.971310000000     0.313630000000    -0.016095   
C54      C      0.759990000000     0.951150000000     0.224780000000    -0.0462719  
C55      C      0.769300000000     0.975580000000     0.341350000000    -0.0141553  
C56      C      0.814920000000     0.957170000000     0.252830000000     0.08001    
C57      C      0.858730000000     0.929320000000     0.221050000000    -0.192526   
C58      C      0.483360000000     0.188590000000     0.278830000000    -0.0165855  
C59      C      0.570970000000     0.229100000000     0.302550000000    -0.0470428  
C60      C      0.460820000000     0.238320000000     0.261040000000    -0.0129365  
C61      C      0.548010000000     0.278600000000     0.283480000000     0.0811678  
C62      C      0.578680000000     0.321370000000     0.310100000000    -0.193842   
C63      C      0.268830000000     0.961650000000     0.705490000000    -0.0162128  
C64      C      0.272020000000     0.030410000000     0.773630000000    -0.0462563  
C65      C      0.254990000000     0.925910000000     0.751620000000    -0.0139074  
C66      C      0.258100000000     0.994070000000     0.819770000000     0.0792821  
C67      C      0.277890000000     0.013860000000     0.875190000000    -0.192136   
C68      C      0.521160000000     0.678920000000     0.811170000000    -0.0165757  
C69      C      0.568990000000     0.749560000000     0.766960000000    -0.0465557  
C70      C      0.467090000000     0.703000000000     0.797850000000    -0.0136872  
C71      C      0.514450000000     0.772790000000     0.752660000000     0.0799843  
C72      C      0.520530000000     0.828370000000     0.743980000000    -0.192279   
C73      C      0.480730000000     0.977500000000     0.084030000000    -0.016238   
C74      C      0.529110000000     0.014540000000     0.003930000000    -0.0459585  
C75      C      0.486040000000     0.926850000000     0.057710000000    -0.0141229  
C76      C      0.534870000000     0.963320000000     0.978210000000     0.0791606  
C77      C      0.542330000000     0.967580000000     0.915870000000    -0.191873   
C78      C      0.022560000000     0.699840000000     0.320460000000    -0.016576   
C79      C      0.946840000000     0.702420000000     0.252930000000    -0.0464763  
C80      C      0.062860000000     0.707420000000     0.273780000000    -0.0137086  
C81      C      0.987290000000     0.711230000000     0.206410000000     0.0803713  
C82      C      0.963170000000     0.695410000000     0.151170000000    -0.193131   
C83      C      0.282840000000     0.684940000000     0.038090000000    -0.0163914  
C84      C      0.199910000000     0.712520000000     0.987890000000    -0.0468102  
C85      C      0.299730000000     0.738560000000     0.044820000000    -0.013485   
C86      C      0.216940000000     0.766180000000     0.996350000000     0.0803294  
C87      C      0.190230000000     0.799400000000     0.953320000000    -0.192876   
C88      C      0.256140000000     0.486510000000     0.314280000000    -0.0165323  
C89      C      0.314530000000     0.462980000000     0.234460000000    -0.0468539  
C90      C      0.206160000000     0.475770000000     0.279690000000    -0.0135311  
C91      C      0.263800000000     0.451470000000     0.200830000000     0.0807433  
C92      C      0.276030000000     0.454010000000     0.139170000000    -0.193476   
C93      C      0.065440000000     0.207870000000     0.766620000000    -0.0164081  
C94      C      0.989640000000     0.193920000000     0.700310000000    -0.0465583  
C95      C      0.027320000000     0.196710000000     0.813990000000    -0.0134429  
C96      C      0.951640000000     0.183500000000     0.748710000000     0.0802888  
C97      C      0.892980000000     0.193550000000     0.732220000000    -0.193715   
C98      C      0.703790000000     0.215630000000     0.036830000000    -0.0160053  
C99      C      0.783910000000     0.188110000000     0.091190000000    -0.0463417  
C100     C      0.734630000000     0.205500000000     0.983840000000    -0.0137143  
C101     C      0.814230000000     0.177510000000     0.037660000000     0.0802951  
C102     C      0.875350000000     0.178550000000     0.047280000000    -0.19296    
C103     C      0.793160000000     0.468320000000     0.735770000000    -0.0157635  
C104     C      0.756120000000     0.501450000000     0.823630000000    -0.0458017  
C105     C      0.783500000000     0.416070000000     0.756270000000    -0.0142162  
C106     C      0.745610000000     0.448840000000     0.843800000000     0.0794584  
C107     C      0.743880000000     0.447810000000     0.906760000000    -0.192478   
C108     C      0.983030000000     0.464060000000     0.057280000000    -0.0164104  
C109     C      0.038750000000     0.482020000000     0.973900000000    -0.046793   
C110     C      0.986730000000     0.409230000000     0.044650000000    -0.0138474  
C111     C      0.042610000000     0.426740000000     0.962130000000     0.0803372  
C112     C      0.054490000000     0.417730000000     0.901160000000    -0.193241   
Cd1      Cd     0.884800000000     0.310640000000     0.897880000000     0.506117   
Cd2      Cd     0.128120000000     0.585240000000     0.126780000000     0.506122   
Cd3      Cd     0.380820000000     0.850980000000     0.896720000000     0.504761   
Cd4      Cd     0.626110000000     0.088470000000     0.172150000000     0.506932   
Cd5      Cd     0.398510000000     0.370060000000     0.398000000000     0.50572    
Cd6      Cd     0.652090000000     0.596930000000     0.673750000000     0.506535   
Cd7      Cd     0.893470000000     0.832100000000     0.397600000000     0.505401   
Cd8      Cd     0.149560000000     0.096560000000     0.618530000000     0.506327   
H1       H      0.030220000000     0.953330000000     0.368160000000     0.0881247  
H2       H      0.017840000000     0.006070000000     0.454100000000     0.0547503  
H3       H      0.976520000000     0.971640000000     0.550540000000     0.049885   
H4       H      0.994500000000     0.883390000000     0.556890000000     0.0528861  
H5       H      0.089450000000     0.014560000000     0.452390000000     0.058567   
H6       H      0.102000000000     0.956010000000     0.372560000000     0.070707   
H7       H      0.103410000000     0.926080000000     0.465000000000     0.0246235  
H8       H      0.024560000000     0.959630000000     0.603760000000     0.0520955  
H9       H      0.065360000000     0.893680000000     0.550050000000     0.0456587  
H10      H      0.070090000000     0.897300000000     0.373410000000     0.0886634  
H11      H      0.772290000000     0.695430000000     0.397970000000     0.0892945  
H12      H      0.791130000000     0.654910000000     0.491600000000     0.0536739  
H13      H      0.833580000000     0.701960000000     0.576520000000     0.0490194  
H14      H      0.811540000000     0.789580000000     0.570930000000     0.0530456  
H15      H      0.720360000000     0.641810000000     0.494040000000     0.0572102  
H16      H      0.701440000000     0.686420000000     0.406560000000     0.0700168  
H17      H      0.700140000000     0.730450000000     0.492650000000     0.0244009  
H18      H      0.788950000000     0.719040000000     0.631110000000     0.0527987  
H19      H      0.741050000000     0.776030000000     0.570540000000     0.0461435  
H20      H      0.725710000000     0.747230000000     0.395730000000     0.0891558  
H21      H      0.215620000000     0.329860000000     0.441950000000     0.0896994  
H22      H      0.215720000000     0.235150000000     0.447140000000     0.0534761  
H23      H      0.303670000000     0.182780000000     0.463360000000     0.0486629  
H24      H      0.369440000000     0.230610000000     0.516170000000     0.0527226  
H25      H      0.169510000000     0.241050000000     0.503300000000     0.0580828  
H26      H      0.173420000000     0.332330000000     0.501350000000     0.0712123  
H27      H      0.237840000000     0.286570000000     0.556220000000     0.0251049  
H28      H      0.313310000000     0.156370000000     0.530050000000     0.052412   
H29      H      0.322220000000     0.238290000000     0.570840000000     0.0467151  
H30      H      0.236060000000     0.364130000000     0.502810000000     0.0910251  
H31      H      0.536320000000     0.607470000000     0.517520000000     0.0894692  
H32      H      0.543210000000     0.521250000000     0.475020000000     0.0538249  
H33      H      0.572520000000     0.441100000000     0.532980000000     0.0490894  
H34      H      0.547600000000     0.452530000000     0.629330000000     0.0520381  
H35      H      0.472980000000     0.526720000000     0.458790000000     0.057507   
H36      H      0.465360000000     0.608420000000     0.504970000000     0.070587   
H37      H      0.450810000000     0.533710000000     0.556640000000     0.0239908  
H38      H      0.519630000000     0.399540000000     0.551660000000     0.0523197  
H39      H      0.478590000000     0.461550000000     0.610910000000     0.045316   
H40      H      0.488600000000     0.616990000000     0.573420000000     0.0888012  
H41      H      0.849240000000     0.889620000000     0.218070000000     0.0887794  
H42      H      0.748270000000     0.911830000000     0.226440000000     0.0527766  
H43      H      0.699020000000     0.933420000000     0.320100000000     0.0474754  
H44      H      0.765060000000     0.965640000000     0.385230000000     0.0516549  
H45      H      0.763150000000     0.961810000000     0.180970000000     0.0572362  
H46      H      0.861400000000     0.943900000000     0.178680000000     0.0691676  
H47      H      0.825410000000     0.996760000000     0.249610000000     0.0247084  
H48      H      0.685690000000     0.996990000000     0.333680000000     0.0524205  
H49      H      0.782070000000     0.014610000000     0.339540000000     0.0463892  
H50      H      0.898680000000     0.935070000000     0.240280000000     0.0880682  
H51      H      0.576920000000     0.319320000000     0.355470000000     0.0903633  
H52      H      0.564210000000     0.225500000000     0.347380000000     0.0548676  
H53      H      0.472040000000     0.182440000000     0.322310000000     0.0495648  
H54      H      0.416550000000     0.238370000000     0.267060000000     0.0515613  
H55      H      0.615070000000     0.228050000000     0.295190000000     0.0584777  
H56      H      0.621700000000     0.319720000000     0.298040000000     0.0714784  
H57      H      0.556260000000     0.281040000000     0.238750000000     0.0249005  
H58      H      0.464480000000     0.159160000000     0.253940000000     0.0528693  
H59      H      0.468400000000     0.242680000000     0.216440000000     0.0459489  
H60      H      0.562790000000     0.357020000000     0.295300000000     0.0903279  
H61      H      0.322290000000     0.018210000000     0.875530000000     0.0873755  
H62      H      0.316510000000     0.034030000000     0.771270000000     0.052488   
H63      H      0.313120000000     0.961140000000     0.699410000000     0.0474836  
H64      H      0.269990000000     0.888920000000     0.740310000000     0.0511336  
H65      H      0.255240000000     0.067150000000     0.783440000000     0.0581172  
H66      H      0.259910000000     0.050480000000     0.882990000000     0.0698255  
H67      H      0.213410000000     0.993070000000     0.822220000000     0.0241955  
H68      H      0.249690000000     0.948850000000     0.666970000000     0.0518166  
H69      H      0.210460000000     0.923520000000     0.754710000000     0.0455119  
H70      H      0.264510000000     0.989620000000     0.909050000000     0.0882819  
H71      H      0.536500000000     0.846620000000     0.781240000000     0.0873521  
H72      H      0.582860000000     0.764710000000     0.806810000000     0.0526853  
H73      H      0.532950000000     0.689940000000     0.853310000000     0.0480054  
H74      H      0.437240000000     0.691800000000     0.829280000000     0.0515674  
H75      H      0.599310000000     0.759510000000     0.735410000000     0.0575327  
H76      H      0.549400000000     0.835400000000     0.710170000000     0.0700189  
H77      H      0.502530000000     0.757310000000     0.712260000000     0.0242976  
H78      H      0.516320000000     0.638430000000     0.810720000000     0.051966   
H79      H      0.453010000000     0.688510000000     0.757800000000     0.0452548  
H80      H      0.481590000000     0.844840000000     0.731490000000     0.0893761  
H81      H      0.506880000000     0.985080000000     0.896320000000     0.0874866  
H82      H      0.492190000000     0.032110000000     0.987330000000     0.0522598  
H83      H      0.441090000000     0.993090000000     0.072250000000     0.0476016  
H84      H      0.451720000000     0.903790000000     0.071260000000     0.0522893  
H85      H      0.564010000000     0.037720000000     0.992120000000     0.0575474  
H86      H      0.577970000000     0.990730000000     0.906750000000     0.0694102  
H87      H      0.573030000000     0.947730000000     0.994520000000     0.0245846  
H88      H      0.481320000000     0.973470000000     0.129290000000     0.0525984  
H89      H      0.523430000000     0.909500000000     0.073450000000     0.0461451  
H90      H      0.550360000000     0.931020000000     0.897630000000     0.0880352  
H91      H      0.952580000000     0.655850000000     0.151260000000     0.0897999  
H92      H      0.939380000000     0.662330000000     0.256370000000     0.0528074  
H93      H      0.018290000000     0.659790000000     0.327640000000     0.0479291  
H94      H      0.101310000000     0.689320000000     0.285040000000     0.0519516  
H95      H      0.907900000000     0.720420000000     0.243140000000     0.0565108  
H96      H      0.925690000000     0.716370000000     0.143200000000     0.0696738  
H97      H      0.992940000000     0.751660000000     0.203820000000     0.0237893  
H98      H      0.038770000000     0.716620000000     0.358480000000     0.0511315  
H99      H      0.070910000000     0.747370000000     0.269980000000     0.0448039  
H100     H      0.991270000000     0.704020000000     0.117190000000     0.0893186  
H101     H      0.201770000000     0.788420000000     0.911150000000     0.0893977  
H102     H      0.214840000000     0.699990000000     0.947310000000     0.0543347  
H103     H      0.302920000000     0.670090000000     0.000970000000     0.0488582  
H104     H      0.344290000000     0.740470000000     0.046910000000     0.0527388  
H105     H      0.155300000000     0.709940000000     0.987490000000     0.0572813  
H106     H      0.145810000000     0.796280000000     0.956520000000     0.0695889  
H107     H      0.200180000000     0.777540000000     0.036680000000     0.0234813  
H108     H      0.297330000000     0.663600000000     0.073910000000     0.0514269  
H109     H      0.283890000000     0.751930000000     0.084680000000     0.0455783  
H110     H      0.200430000000     0.838420000000     0.960980000000     0.08838    
H111     H      0.290950000000     0.490880000000     0.127250000000     0.0908988  
H112     H      0.327060000000     0.501340000000     0.225740000000     0.0545142  
H113     H      0.265150000000     0.526320000000     0.311160000000     0.049169   
H114     H      0.172650000000     0.499350000000     0.294170000000     0.0518845  
H115     H      0.347830000000     0.438360000000     0.221570000000     0.0578394  
H116     H      0.307880000000     0.427040000000     0.128740000000     0.0708986  
H117     H      0.253540000000     0.412520000000     0.209650000000     0.0240575  
H118     H      0.247140000000     0.478180000000     0.357860000000     0.0513869  
H119     H      0.194200000000     0.437030000000     0.286940000000     0.0445751  
H120     H      0.239910000000     0.443910000000     0.114960000000     0.089103   
H121     H      0.887140000000     0.232530000000     0.720470000000     0.0907625  
H122     H      0.985990000000     0.233270000000     0.688970000000     0.053499   
H123     H      0.066300000000     0.248220000000     0.760270000000     0.0475011  
H124     H      0.041690000000     0.216360000000     0.851030000000     0.0500647  
H125     H      0.977150000000     0.171760000000     0.664280000000     0.0582852  
H126     H      0.882120000000     0.170630000000     0.696310000000     0.0714422  
H127     H      0.954420000000     0.143400000000     0.756780000000     0.023983   
H128     H      0.106670000000     0.195930000000     0.778000000000     0.0516715  
H129     H      0.029510000000     0.156770000000     0.822850000000     0.044468   
H130     H      0.865220000000     0.183120000000     0.765850000000     0.0898574  
H131     H      0.888640000000     0.214750000000     0.063100000000     0.0900728  
H132     H      0.793870000000     0.225960000000     0.104780000000     0.0531952  
H133     H      0.709320000000     0.254900000000     0.047650000000     0.0469067  
H134     H      0.719530000000     0.230590000000     0.951490000000     0.050881   
H135     H      0.797440000000     0.162370000000     0.123680000000     0.0575434  
H136     H      0.886400000000     0.150510000000     0.078290000000     0.0698734  
H137     H      0.804170000000     0.139060000000     0.026270000000     0.0244108  
H138     H      0.660220000000     0.209310000000     0.029690000000     0.0517386  
H139     H      0.725510000000     0.167390000000     0.970620000000     0.0457154  
H140     H      0.897180000000     0.168990000000     0.009100000000     0.0886008  
H141     H      0.783350000000     0.458280000000     0.924540000000     0.0877017  
H142     H      0.796340000000     0.513310000000     0.838500000000     0.051935   
H143     H      0.835200000000     0.478730000000     0.745960000000     0.0467292  
H144     H      0.813770000000     0.391480000000     0.737200000000     0.0515349  
H145     H      0.725660000000     0.526770000000     0.841260000000     0.0580199  
H146     H      0.713480000000     0.474390000000     0.921880000000     0.0708607  
H147     H      0.704460000000     0.439010000000     0.829580000000     0.0264354  
H148     H      0.788960000000     0.469100000000     0.690500000000     0.0519384  
H149     H      0.743250000000     0.404070000000     0.741670000000     0.0474297  
H150     H      0.731070000000     0.411170000000     0.921630000000     0.0911135  
H151     H      0.022240000000     0.433060000000     0.874780000000     0.088546   
H152     H      0.004280000000     0.497300000000     0.950450000000     0.0524454  
H153     H      0.945230000000     0.478380000000     0.039000000000     0.0462801  
H154     H      0.950270000000     0.390820000000     0.060990000000     0.0508004  
H155     H      0.075880000000     0.500680000000     0.959460000000     0.0576437  
H156     H      0.092720000000     0.436110000000     0.889680000000     0.0706151  
H157     H      0.078470000000     0.413300000000     0.984950000000     0.0237902  
H158     H      0.980570000000     0.469210000000     0.102330000000     0.0508622  
H159     H      0.021980000000     0.394080000000     0.066960000000     0.0449508  
H160     H      0.060090000000     0.377990000000     0.893140000000     0.0905484  
N1       N      0.021890000000     0.907450000000     0.477000000000    -0.164504   
N2       N      0.055650000000     0.993200000000     0.530150000000    -0.148511   
N3       N      0.780590000000     0.754950000000     0.497360000000    -0.164412   
N4       N      0.754220000000     0.676000000000     0.565800000000    -0.148645   
N5       N      0.301320000000     0.278210000000     0.499490000000    -0.16453    
N6       N      0.238280000000     0.194490000000     0.517020000000    -0.149406   
N7       N      0.529050000000     0.520310000000     0.586810000000    -0.164901   
N8       N      0.497000000000     0.460150000000     0.499550000000    -0.149306   
N9       N      0.809140000000     0.945200000000     0.312010000000    -0.165123   
N10      N      0.719410000000     0.980210000000     0.254390000000    -0.149237   
N11      N      0.488600000000     0.277960000000     0.290980000000    -0.165104   
N12      N      0.542410000000     0.189050000000     0.274380000000    -0.14874    
N13      N      0.276780000000     0.944080000000     0.804120000000    -0.165127   
N14      N      0.252170000000     0.011550000000     0.720860000000    -0.148482   
N15      N      0.473750000000     0.756690000000     0.793640000000    -0.165131   
N16      N      0.562460000000     0.696130000000     0.772490000000    -0.149076   
N17      N      0.489970000000     0.931580000000     0.997580000000    -0.164594   
N18      N      0.523540000000     0.010010000000     0.063740000000    -0.148705   
N19      N      0.040070000000     0.689250000000     0.221700000000    -0.164665   
N20      N      0.969930000000     0.720090000000     0.304770000000    -0.149592   
N21      N      0.276620000000     0.768490000000     0.000260000000    -0.164236   
N22      N      0.224180000000     0.681570000000     0.030730000000    -0.149035   
N23      N      0.218650000000     0.482390000000     0.221050000000    -0.164383   
N24      N      0.302510000000     0.458620000000     0.293330000000    -0.148384   
N25      N      0.971750000000     0.209500000000     0.798260000000    -0.165087   
N26      N      0.045750000000     0.184160000000     0.716330000000    -0.148663   
N27      N      0.793000000000     0.210090000000     0.993760000000    -0.165362   
N28      N      0.725610000000     0.185070000000     0.081250000000    -0.148974   
N29      N      0.784210000000     0.414690000000     0.816770000000    -0.164152   
N30      N      0.756180000000     0.502360000000     0.763400000000    -0.149131   
N31      N      0.994480000000     0.401730000000     0.985290000000    -0.164865   
N32      N      0.028990000000     0.490000000000     0.032700000000    -0.1495     
O1       O      0.848320000000     0.353450000000     0.816960000000    -0.252194   
O2       O      0.871840000000     0.250840000000     0.972110000000    -0.259259   
O3       O      0.961900000000     0.366560000000     0.905540000000    -0.259707   
O4       O      0.895970000000     0.255770000000     0.818200000000    -0.257018   
O5       O      0.963770000000     0.262320000000     0.871340000000    -0.255649   
O6       O      0.920280000000     0.351230000000     0.980220000000    -0.253156   
O7       O      0.818250000000     0.377120000000     0.894520000000    -0.260138   
O8       O      0.801930000000     0.267320000000     0.924950000000    -0.256509   
O9       O      0.151240000000     0.539800000000     0.210880000000    -0.250353   
O10      O      0.143470000000     0.646310000000     0.054430000000    -0.253159   
O11      O      0.049260000000     0.635620000000     0.148820000000    -0.258164   
O12      O      0.052290000000     0.528190000000     0.113310000000    -0.253444   
O13      O      0.100600000000     0.542710000000     0.042350000000    -0.252832   
O14      O      0.115060000000     0.641820000000     0.204630000000    -0.251674   
O15      O      0.199750000000     0.524280000000     0.140770000000    -0.257375   
O16      O      0.213670000000     0.624270000000     0.099170000000    -0.251555   
O17      O      0.323550000000     0.872170000000     0.818080000000    -0.25568    
O18      O      0.409260000000     0.770490000000     0.859760000000    -0.254904   
O19      O      0.292790000000     0.821410000000     0.927900000000    -0.259824   
O20      O      0.418330000000     0.879200000000     0.984730000000    -0.251892   
O21      O      0.455440000000     0.908690000000     0.913210000000    -0.259266   
O22      O      0.360670000000     0.793750000000     0.971940000000    -0.245649   
O23      O      0.330790000000     0.927630000000     0.879380000000    -0.262066   
O24      O      0.449360000000     0.832990000000     0.826900000000    -0.260544   
O25      O      0.693200000000     0.022390000000     0.177350000000    -0.253577   
O26      O      0.619820000000     0.156510000000     0.237940000000    -0.253259   
O27      O      0.593220000000     0.063110000000     0.081550000000    -0.249567   
O28      O      0.712290000000     0.126550000000     0.147720000000    -0.250242   
O29      O      0.643390000000     0.151310000000     0.102290000000    -0.248693   
O30      O      0.551780000000     0.031690000000     0.150220000000    -0.249053   
O31      O      0.654580000000     0.040540000000     0.253220000000    -0.252178   
O32      O      0.544890000000     0.123030000000     0.215710000000    -0.250099   
O33      O      0.313570000000     0.345100000000     0.442290000000    -0.256666   
O34      O      0.481180000000     0.342270000000     0.352490000000    -0.259681   
O35      O      0.460500000000     0.385890000000     0.474870000000    -0.25264    
O36      O      0.323770000000     0.426620000000     0.377900000000    -0.24663    
O37      O      0.373640000000     0.406600000000     0.309560000000    -0.251915   
O38      O      0.439170000000     0.448760000000     0.427040000000    -0.254627   
O39      O      0.381550000000     0.299830000000     0.458990000000    -0.252163   
O40      O      0.409590000000     0.303150000000     0.331490000000    -0.253449   
O41      O      0.585580000000     0.618210000000     0.744950000000    -0.251325   
O42      O      0.578690000000     0.589930000000     0.606650000000    -0.259019   
O43      O      0.691660000000     0.562690000000     0.758110000000    -0.251537   
O44      O      0.688870000000     0.618370000000     0.583410000000    -0.251282   
O45      O      0.723430000000     0.656410000000     0.651950000000    -0.24855    
O46      O      0.721770000000     0.532900000000     0.682820000000    -0.252135   
O47      O      0.626480000000     0.678740000000     0.707350000000    -0.251161   
O48      O      0.598250000000     0.524070000000     0.649540000000    -0.253448   
O49      O      0.869350000000     0.880560000000     0.316320000000    -0.258971   
O50      O      0.947870000000     0.856560000000     0.477260000000    -0.246416   
O51      O      0.964540000000     0.770860000000     0.379860000000    -0.255314   
O52      O      0.849100000000     0.810800000000     0.484790000000    -0.246899   
O53      O      0.820320000000     0.773100000000     0.414030000000    -0.260725   
O54      O      0.901570000000     0.775210000000     0.319970000000    -0.251327   
O55      O      0.829310000000     0.901200000000     0.390040000000    -0.257452   
O56      O      0.972470000000     0.886310000000     0.400200000000    -0.261247   
O57      O      0.202830000000     0.023190000000     0.642150000000    -0.250693   
O58      O      0.231440000000     0.125500000000     0.570880000000    -0.253756   
O59      O      0.127500000000     0.148500000000     0.697610000000    -0.247586   
O60      O      0.083540000000     0.029790000000     0.610200000000    -0.250291   
O61      O      0.117730000000     0.055710000000     0.534740000000    -0.251805   
O62      O      0.062610000000     0.135000000000     0.641670000000    -0.249856   
O63      O      0.204400000000     0.081630000000     0.701000000000    -0.24606    
O64      O      0.160350000000     0.168460000000     0.558460000000    -0.25419    


