data_structure

_audit_creation_method RASPA-1.0
_audit_creation_date 2023-5-22
_audit_author_name 'Poobodin Mano'

_cell_length_a    27.8867
_cell_length_b    33.3872
_cell_length_c    35.5646
_cell_angle_alpha 90.0037
_cell_angle_beta  90.0036
_cell_angle_gamma 120
_cell_volume      28676.5

_symmetry_cell_setting          triclinic
_symmetry_space_group_name_Hall 'P 1'
_symmetry_space_group_name_H-M  'P 1'
_symmetry_Int_Tables_number     1

_symmetry_equiv_pos_as_xyz 'x,y,z'

loop_
_atom_site_label
_atom_site_type_symbol
_atom_site_fract_x
_atom_site_fract_y
_atom_site_fract_z
_atom_site_charge
C1       C      0.836910000000     0.499280000000     0.332570000000     0.344927   
C2       C      0.906760000000     0.506630000000     0.206490000000     0.345045   
C3       C      0.849610000000     0.608670000000     0.249180000000     0.340239   
C4       C      0.011150000000     0.617050000000     0.303190000000     0.340368   
C5       C      0.511260000000     0.703240000000     0.035720000000     0.341474   
C6       C      0.518900000000     0.708870000000     0.176650000000     0.342288   
C7       C      0.638430000000     0.686490000000     0.099180000000     0.34076    
C8       C      0.629010000000     0.831580000000     0.110710000000     0.340705   
C9       C      0.830560000000     0.250090000000     0.059140000000     0.342659   
C10      C      0.783310000000     0.241260000000     0.928480000000     0.341134   
C11      C      0.950780000000     0.264370000000     0.951990000000     0.342665   
C12      C      0.799490000000     0.122240000000     0.993730000000     0.339659   
C13      C      0.389320000000     0.531160000000     0.812050000000     0.340624   
C14      C      0.321960000000     0.569360000000     0.699170000000     0.340468   
C15      C      0.351890000000     0.440440000000     0.708410000000     0.343385   
C16      C      0.203270000000     0.452960000000     0.771780000000     0.344171   
C17      C      0.765410000000     0.364770000000     0.568990000000     0.34081    
C18      C      0.737270000000     0.293270000000     0.678360000000     0.343761   
C19      C      0.627330000000     0.364390000000     0.652010000000     0.341763   
C20      C      0.586610000000     0.235870000000     0.584760000000     0.340745   
C21      C      0.429220000000     0.780020000000     0.497850000000     0.34283    
C22      C      0.457100000000     0.845770000000     0.383060000000     0.343442   
C23      C      0.298260000000     0.820290000000     0.453830000000     0.342189   
C24      C      0.470390000000     0.937930000000     0.491260000000     0.342914   
C25      C      0.541330000000     0.193500000000     0.526220000000     0.0107979  
C26      C      0.492120000000     0.987180000000     0.547970000000     0.00962205 
C27      C      0.538220000000     0.021780000000     0.487150000000     0.00963874 
C28      C      0.475030000000     0.023780000000     0.553620000000    -0.0992927  
C29      C      0.547980000000     0.152110000000     0.515680000000    -0.0987922  
C30      C      0.522730000000     0.059670000000     0.489640000000    -0.0993581  
C31      C      0.515690000000     0.109440000000     0.540760000000     0.0195218  
C32      C      0.508400000000     0.067180000000     0.529620000000     0.0192304  
C33      C      0.499310000000     0.160440000000     0.587800000000     0.0106403  
C34      C      0.501880000000     0.116230000000     0.581200000000    -0.0987015  
C35      C      0.391700000000     0.423740000000     0.652250000000     0.010169   
C36      C      0.579370000000     0.379650000000     0.703950000000     0.0101137  
C37      C      0.604130000000     0.426730000000     0.645760000000     0.00981503 
C38      C      0.518330000000     0.365950000000     0.700980000000    -0.099152   
C39      C      0.451300000000     0.432960000000     0.653030000000    -0.0987446  
C40      C      0.544720000000     0.416650000000     0.639980000000    -0.0989741  
C41      C      0.460540000000     0.400330000000     0.678490000000     0.0189507  
C42      C      0.507840000000     0.397270000000     0.674850000000     0.0189645  
C43      C      0.364530000000     0.372070000000     0.707580000000     0.0103144  
C44      C      0.422730000000     0.379230000000     0.712760000000    -0.0988029  
C45      C      0.360360000000     0.652380000000     0.683950000000     0.00982502 
C46      C      0.403990000000     0.698530000000     0.509060000000     0.0109864  
C47      C      0.474150000000     0.760540000000     0.549280000000     0.0105329  
C48      C      0.366360000000     0.672860000000     0.542350000000    -0.0989996  
C49      C      0.399380000000     0.675430000000     0.650600000000    -0.0989188  
C50      C      0.441670000000     0.738410000000     0.585370000000    -0.0988264  
C51      C      0.370990000000     0.660880000000     0.612110000000     0.0191603  
C52      C      0.394450000000     0.688330000000     0.580870000000     0.019396   
C53      C      0.287830000000     0.592140000000     0.643410000000     0.0101581  
C54      C      0.323150000000     0.611090000000     0.607950000000    -0.0989734  
C55      C      0.017500000000     0.264270000000     0.905970000000     0.00978145 
C56      C      0.130620000000     0.452310000000     0.812220000000     0.0111395  
C57      C      0.108980000000     0.384240000000     0.773080000000     0.0108042  
C58      C      0.118600000000     0.425290000000     0.849020000000    -0.0990397  
C59      C      0.027450000000     0.291530000000     0.869390000000    -0.0987149  
C60      C      0.093860000000     0.352150000000     0.807200000000    -0.098957   
C61      C      0.060790000000     0.344210000000     0.874380000000     0.0187359  
C62      C      0.086700000000     0.372580000000     0.844040000000     0.0191891  
C63      C      0.044230000000     0.333200000000     0.945540000000     0.0103599  
C64      C      0.054720000000     0.364580000000     0.911540000000    -0.0988157  
C65      C      0.811760000000     0.320600000000     0.726100000000     0.0109806  
C66      C      0.709670000000     0.214570000000     0.880180000000     0.0103245  
C67      C      0.773660000000     0.298230000000     0.889320000000     0.0100427  
C68      C      0.727200000000     0.215690000000     0.839290000000    -0.0987583  
C69      C      0.795130000000     0.319240000000     0.767240000000    -0.0990952  
C70      C      0.794870000000     0.305010000000     0.848800000000    -0.0985256  
C71      C      0.763580000000     0.270430000000     0.784020000000     0.01938    
C72      C      0.758990000000     0.264460000000     0.822450000000     0.0187715  
C73      C      0.748580000000     0.236810000000     0.717070000000     0.0107489  
C74      C      0.727910000000     0.229760000000     0.757720000000    -0.0991051  
C75      C      0.531090000000     0.847990000000     0.342960000000     0.0102157  
C76      C      0.437640000000     0.692100000000     0.216000000000     0.0104612  
C77      C      0.522910000000     0.702350000000     0.245790000000     0.0109236  
C78      C      0.440870000000     0.733780000000     0.236420000000    -0.0987054  
C79      C      0.523340000000     0.802690000000     0.326690000000    -0.0990764  
C80      C      0.532710000000     0.745080000000     0.267910000000    -0.0988639  
C81      C      0.481490000000     0.783320000000     0.294290000000     0.0191231  
C82      C      0.482900000000     0.752820000000     0.268800000000     0.0191973  
C83      C      0.444490000000     0.836780000000     0.313980000000     0.0103097  
C84      C      0.431630000000     0.790880000000     0.295880000000    -0.0991841  
C85      C      0.813910000000     0.055910000000     0.006500000000     0.00962834 
C86      C      0.623730000000     0.903380000000     0.110100000000     0.0110832  
C87      C      0.713930000000     0.907730000000     0.120060000000     0.0102167  
C88      C      0.643010000000     0.932890000000     0.074570000000    -0.0991048  
C89      C      0.793250000000     0.027320000000     0.042720000000    -0.0988893  
C90      C      0.740530000000     0.940410000000     0.086550000000    -0.0987991  
C91      C      0.730050000000     0.997470000000     0.045670000000     0.0190855  
C92      C      0.706100000000     0.960430000000     0.070000000000     0.019516   
C93      C      0.720300000000     0.042260000000     0.990910000000     0.0102143  
C94      C      0.695110000000     0.015750000000     0.027250000000    -0.0990601  
C95      C      0.477210000000     0.588670000000     0.842550000000     0.00998705 
C96      C      0.426100000000     0.648450000000     0.001310000000     0.0102204  
C97      C      0.502850000000     0.713870000000     0.967470000000     0.00989858 
C98      C      0.427100000000     0.612420000000     0.975300000000    -0.0988653  
C99      C      0.477850000000     0.624270000000     0.870110000000    -0.0987534  
C100     C      0.507430000000     0.681880000000     0.938600000000    -0.0988441  
C101     C      0.448440000000     0.604020000000     0.907630000000     0.0192745  
C102     C      0.457940000000     0.632420000000     0.938220000000     0.0189933  
C103     C      0.405970000000     0.522770000000     0.879230000000     0.0107258  
C104     C      0.400180000000     0.554060000000     0.907990000000    -0.0990446  
C105     C      0.787430000000     0.422940000000     0.364350000000     0.0101662  
C106     C      0.833700000000     0.439670000000     0.540890000000     0.0113943  
C107     C      0.822250000000     0.367060000000     0.514510000000     0.0105363  
C108     C      0.814700000000     0.452470000000     0.504890000000    -0.0988671  
C109     C      0.811910000000     0.413680000000     0.399690000000    -0.0990314  
C110     C      0.805090000000     0.375900000000     0.475810000000    -0.0986191  
C111     C      0.810190000000     0.439680000000     0.434790000000     0.0192783  
C112     C      0.813640000000     0.424670000000     0.470240000000     0.0194924  
C113     C      0.789230000000     0.491250000000     0.393110000000     0.0110404  
C114     C      0.816470000000     0.487570000000     0.429140000000    -0.0992417  
C115     C      0.098570000000     0.692550000000     0.305780000000     0.00924358 
C116     C      0.200810000000     0.763230000000     0.468670000000     0.0113589  
C117     C      0.221810000000     0.826990000000     0.424840000000     0.0110187  
C118     C      0.173130000000     0.725900000000     0.438510000000    -0.0987097  
C119     C      0.111940000000     0.726500000000     0.338450000000    -0.0991032  
C120     C      0.193900000000     0.794330000000     0.391510000000    -0.0986483  
C121     C      0.127120000000     0.711010000000     0.374950000000     0.019019   
C122     C      0.160650000000     0.742710000000     0.401560000000     0.0197014  
C123     C      0.083940000000     0.629050000000     0.349100000000     0.00989204 
C124     C      0.094550000000     0.659230000000     0.383890000000    -0.0992515  
C125     C      0.851930000000     0.676870000000     0.219300000000     0.00950124 
C126     C      0.645890000000     0.616660000000     0.109740000000     0.0115008  
C127     C      0.728030000000     0.689070000000     0.089380000000     0.0102655  
C128     C      0.670620000000     0.616200000000     0.147890000000    -0.0990075  
C129     C      0.826480000000     0.672990000000     0.180250000000    -0.0988738  
C130     C      0.760840000000     0.691570000000     0.124850000000    -0.0985188  
C131     C      0.763030000000     0.643840000000     0.179220000000     0.0193858  
C132     C      0.733450000000     0.648620000000     0.150260000000     0.0197222  
C133     C      0.763920000000     0.613130000000     0.244570000000     0.0108589  
C134     C      0.734970000000     0.603030000000     0.206510000000    -0.0993134  
C135     C      0.951890000000     0.471060000000     0.170180000000     0.0100398  
C136     C      0.779940000000     0.272920000000     0.103410000000     0.0110105  
C137     C      0.867800000000     0.278160000000     0.123070000000     0.0104521  
C138     C      0.802300000000     0.324770000000     0.108190000000    -0.0988503  
C139     C      0.926680000000     0.418440000000     0.168660000000    -0.0990381  
C140     C      0.895750000000     0.330300000000     0.130430000000    -0.0987249  
C141     C      0.873720000000     0.393460000000     0.145000000000     0.0194661  
C142     C      0.856320000000     0.349900000000     0.130750000000     0.019487   
C143     C      0.865780000000     0.466550000000     0.146410000000     0.0107441  
C144     C      0.835120000000     0.413760000000     0.144660000000    -0.0992884  
Cd1      Cd     0.902800000000     0.557360000000     0.271480000000     0.505018   
Cd2      Cd     0.574280000000     0.732260000000     0.104760000000     0.505973   
Cd3      Cd     0.841660000000     0.220110000000     0.984890000000     0.505134   
Cd4      Cd     0.317170000000     0.497900000000     0.747340000000     0.50517    
Cd5      Cd     0.677800000000     0.313660000000     0.622030000000     0.504963   
Cd6      Cd     0.414110000000     0.847370000000     0.456640000000     0.505092   
H1       H      0.534170000000     0.143860000000     0.485970000000     0.0460634  
H2       H      0.532810000000     0.999490000000     0.561990000000     0.0335973  
H3       H      0.458760000000     0.154640000000     0.577210000000     0.0306929  
H4       H      0.460710000000     0.087280000000     0.589680000000     0.0461262  
H5       H      0.479900000000     0.031500000000     0.584160000000     0.0464271  
H6       H      0.558760000000     0.091130000000     0.477980000000     0.0465818  
H7       H      0.573450000000     0.224920000000     0.511530000000     0.0422778  
H8       H      0.461500000000     0.954660000000     0.562180000000     0.0438457  
H9       H      0.533780000000     0.116650000000     0.600200000000     0.0577606  
H10      H      0.486420000000     0.050320000000     0.471240000000     0.0565697  
H11      H      0.500910000000     0.167340000000     0.618490000000     0.0427698  
H12      H      0.579820000000     0.035100000000     0.500060000000     0.0338276  
H13      H      0.592650000000     0.162880000000     0.517170000000     0.0577418  
H14      H      0.430500000000     0.008540000000     0.546390000000     0.0562243  
H15      H      0.541450000000     0.014440000000     0.457050000000     0.0440562  
H16      H      0.500160000000     0.186700000000     0.516080000000     0.0307897  
H17      H      0.461670000000     0.430200000000     0.623350000000     0.0459052  
H18      H      0.601090000000     0.411720000000     0.721160000000     0.0323008  
H19      H      0.340890000000     0.341790000000     0.688740000000     0.0321051  
H20      H      0.416840000000     0.344560000000     0.719480000000     0.0462797  
H21      H      0.504890000000     0.366770000000     0.730200000000     0.0463091  
H22      H      0.548680000000     0.449950000000     0.630840000000     0.046008   
H23      H      0.391070000000     0.453890000000     0.639540000000     0.0427383  
H24      H      0.582720000000     0.351970000000     0.719020000000     0.0429922  
H25      H      0.442510000000     0.402350000000     0.737300000000     0.056565   
H26      H      0.525500000000     0.391270000000     0.616710000000     0.0559715  
H27      H      0.342980000000     0.363690000000     0.735190000000     0.0433623  
H28      H      0.626800000000     0.459060000000     0.662550000000     0.0324798  
H29      H      0.479010000000     0.469030000000     0.662740000000     0.0562273  
H30      H      0.494270000000     0.329850000000     0.690390000000     0.056474   
H31      H      0.625070000000     0.433170000000     0.618000000000     0.0433859  
H32      H      0.366830000000     0.393350000000     0.633760000000     0.0318679  
H33      H      0.418040000000     0.713180000000     0.655310000000     0.0463977  
H34      H      0.432880000000     0.685040000000     0.504670000000     0.0308658  
H35      H      0.262220000000     0.608970000000     0.646440000000     0.0323411  
H36      H      0.293950000000     0.608030000000     0.585440000000     0.0462944  
H37      H      0.351680000000     0.635650000000     0.537400000000     0.0460415  
H38      H      0.472740000000     0.740650000000     0.606070000000     0.0463207  
H39      H      0.385290000000     0.658700000000     0.709950000000     0.0437409  
H40      H      0.378500000000     0.690980000000     0.483190000000     0.0420745  
H41      H      0.340640000000     0.588630000000     0.600520000000     0.0573544  
H42      H      0.423810000000     0.759530000000     0.595870000000     0.057506   
H43      H      0.259070000000     0.554390000000     0.639970000000     0.0437649  
H44      H      0.502930000000     0.747080000000     0.544190000000     0.031538   
H45      H      0.432960000000     0.666720000000     0.651590000000     0.0568727  
H46      H      0.330020000000     0.678110000000     0.541770000000     0.0575059  
H47      H      0.499760000000     0.798580000000     0.553230000000     0.0435096  
H48      H      0.334810000000     0.669160000000     0.687730000000     0.0324971  
H49      H      0.048870000000     0.279190000000     0.850330000000     0.0464509  
H50      H      0.091570000000     0.450230000000     0.802320000000     0.0306792  
H51      H      0.083620000000     0.334140000000     0.952740000000     0.0322285  
H52      H      0.092750000000     0.397680000000     0.918330000000     0.0462921  
H53      H      0.094980000000     0.436840000000     0.866730000000     0.0460089  
H54      H      0.055050000000     0.320110000000     0.799490000000     0.0459757  
H55      H      0.985550000000     0.227510000000     0.901170000000     0.043455   
H56      H      0.161150000000     0.489360000000     0.817430000000     0.0424453  
H57      H      0.019710000000     0.371370000000     0.908750000000     0.0568038  
H58      H      0.126960000000     0.343270000000     0.811430000000     0.0581067  
H59      H      0.032250000000     0.346910000000     0.970080000000     0.0432718  
H60      H      0.070760000000     0.383510000000     0.763020000000     0.0308744  
H61      H      0.986750000000     0.282300000000     0.856750000000     0.0557921  
H62      H      0.158550000000     0.435270000000     0.863230000000     0.0580879  
H63      H      0.124040000000     0.370960000000     0.749940000000     0.0433547  
H64      H      0.056660000000     0.265160000000     0.913830000000     0.0325593  
H65      H      0.834280000000     0.341250000000     0.782720000000     0.0457724  
H66      H      0.674200000000     0.221040000000     0.880660000000     0.0322     
H67      H      0.785000000000     0.231620000000     0.715880000000     0.0313632  
H68      H      0.726400000000     0.197550000000     0.767460000000     0.0464744  
H69      H      0.688390000000     0.193500000000     0.823520000000     0.0466832  
H70      H      0.797200000000     0.337490000000     0.838950000000     0.0460141  
H71      H      0.825690000000     0.355570000000     0.714300000000     0.042822   
H72      H      0.694980000000     0.179550000000     0.892100000000     0.0441315  
H73      H      0.685080000000     0.224070000000     0.757860000000     0.0578033  
H74      H      0.837440000000     0.310130000000     0.848980000000     0.0551892  
H75      H      0.715770000000     0.210190000000     0.698790000000     0.0429575  
H76      H      0.737620000000     0.303940000000     0.890140000000     0.0319084  
H77      H      0.768560000000     0.335220000000     0.769550000000     0.0580948  
H78      H      0.753920000000     0.199790000000     0.837580000000     0.0573549  
H79      H      0.806440000000     0.324670000000     0.907730000000     0.0423138  
H80      H      0.847600000000     0.314630000000     0.725010000000     0.030807   
H81      H      0.565180000000     0.810360000000     0.317650000000     0.0464754  
H82      H      0.413090000000     0.660800000000     0.233630000000     0.0317051  
H83      H      0.469170000000     0.865110000000     0.293670000000     0.0321878  
H84      H      0.415600000000     0.791180000000     0.267380000000     0.0463954  
H85      H      0.398360000000     0.722250000000     0.246820000000     0.046564   
H86      H      0.544380000000     0.740510000000     0.296790000000     0.0462189  
H87      H      0.555280000000     0.856140000000     0.369500000000     0.0435075  
H88      H      0.415300000000     0.686590000000     0.188890000000     0.0440054  
H89      H      0.398090000000     0.762010000000     0.312100000000     0.0567209  
H90      H      0.568350000000     0.776090000000     0.255170000000     0.0574086  
H91      H      0.405140000000     0.836700000000     0.319250000000     0.0428145  
H92      H      0.497050000000     0.671170000000     0.263260000000     0.0309269  
H93      H      0.508990000000     0.776340000000     0.349420000000     0.0568466  
H94      H      0.452190000000     0.761990000000     0.215640000000     0.0577332  
H95      H      0.563140000000     0.703900000000     0.240650000000     0.0418529  
H96      H      0.555730000000     0.876260000000     0.322600000000     0.0323807  
H97      H      0.813410000000     0.005880000000     0.043460000000     0.0464836  
H98      H      0.632660000000     0.926700000000     0.134690000000     0.03075    
H99      H      0.716390000000     0.017110000000     0.968880000000     0.0327515  
H100     H      0.653300000000     0.987270000000     0.019440000000     0.0468865  
H101     H      0.625510000000     0.956290000000     0.076290000000     0.0466699  
H102     H      0.781210000000     0.968420000000     0.096780000000     0.046246   
H103     H      0.858200000000     0.082750000000     0.009920000000     0.0440406  
H104     H      0.578160000000     0.879820000000     0.108830000000     0.0425491  
H105     H      0.690300000000     0.038830000000     0.047540000000     0.0573395  
H106     H      0.748030000000     0.921270000000     0.063880000000     0.0571068  
H107     H      0.696280000000     0.058750000000     0.981350000000     0.0446498  
H108     H      0.720960000000     0.929100000000     0.145700000000     0.031044   
H109     H      0.808310000000     0.051210000000     0.067200000000     0.0560807  
H110     H      0.624910000000     0.909990000000     0.049690000000     0.0583528  
H111     H      0.734880000000     0.887200000000     0.124500000000     0.0433078  
H112     H      0.811410000000     0.032530000000     0.983340000000     0.0328896  
H113     H      0.522220000000     0.650090000000     0.874560000000     0.046143   
H114     H      0.396590000000     0.658440000000     0.989500000000     0.0325439  
H115     H      0.438430000000     0.515240000000     0.889320000000     0.0312865  
H116     H      0.396410000000     0.537450000000     0.935710000000     0.0462813  
H117     H      0.383020000000     0.586210000000     0.970320000000     0.0464552  
H118     H      0.512670000000     0.699060000000     0.910970000000     0.046222   
H119     H      0.489060000000     0.604360000000     0.814070000000     0.0432309  
H120     H      0.410300000000     0.632720000000     0.029390000000     0.0443726  
H121     H      0.361200000000     0.554430000000     0.902300000000     0.0575309  
H122     H      0.545450000000     0.680130000000     0.944620000000     0.0563049  
H123     H      0.366390000000     0.489330000000     0.877530000000     0.0426763  
H124     H      0.473510000000     0.724420000000     0.956340000000     0.0321486  
H125     H      0.457600000000     0.641940000000     0.856460000000     0.0569914  
H126     H      0.447230000000     0.595460000000     0.990250000000     0.0570843  
H127     H      0.543860000000     0.745740000000     0.970650000000     0.0428175  
H128     H      0.509090000000     0.579980000000     0.851720000000     0.0313328  
H129     H      0.788240000000     0.375660000000     0.403860000000     0.0461104  
H130     H      0.879370000000     0.454490000000     0.539410000000     0.0309301  
H131     H      0.743500000000     0.470720000000     0.396770000000     0.0322915  
H132     H      0.796920000000     0.496680000000     0.452250000000     0.0466219  
H133     H      0.843540000000     0.490040000000     0.500590000000     0.0462156  
H134     H      0.829450000000     0.368760000000     0.454900000000     0.0460965  
H135     H      0.799290000000     0.410000000000     0.339250000000     0.0426872  
H136     H      0.824830000000     0.455510000000     0.565480000000     0.0433975  
H137     H      0.861330000000     0.513720000000     0.428430000000     0.0573554  
H138     H      0.760460000000     0.350530000000     0.471470000000     0.0573689  
H139     H      0.800550000000     0.527890000000     0.388580000000     0.0432907  
H140     H      0.868030000000     0.382340000000     0.514700000000     0.0312436  
H141     H      0.855810000000     0.424000000000     0.394070000000     0.0566212  
H142     H      0.772310000000     0.446840000000     0.509410000000     0.059081   
H143     H      0.803410000000     0.329200000000     0.519080000000     0.0429782  
H144     H      0.741490000000     0.402910000000     0.366660000000     0.0321813  
H145     H      0.145930000000     0.760150000000     0.328170000000     0.0464989  
H146     H      0.168700000000     0.769260000000     0.481740000000     0.0303214  
H147     H      0.123980000000     0.632340000000     0.340070000000     0.032851   
H148     H      0.116580000000     0.648650000000     0.403980000000     0.0461149  
H149     H      0.134280000000     0.698050000000     0.451220000000     0.0457846  
H150     H      0.166580000000     0.805610000000     0.378150000000     0.0462892  
H151     H      0.080260000000     0.702400000000     0.282270000000     0.0442656  
H152     H      0.218040000000     0.750860000000     0.491120000000     0.0418487  
H153     H      0.054260000000     0.651020000000     0.396620000000     0.0563865  
H154     H      0.226560000000     0.799360000000     0.371020000000     0.058474   
H155     H      0.055640000000     0.592250000000     0.356680000000     0.0429945  
H156     H      0.190240000000     0.832520000000     0.439390000000     0.0304654  
H157     H      0.075310000000     0.730450000000     0.344030000000     0.056563   
H158     H      0.200770000000     0.711680000000     0.432170000000     0.0585052  
H159     H      0.254750000000     0.861180000000     0.414390000000     0.0426477  
H160     H      0.138080000000     0.695840000000     0.295510000000     0.0329623  
H161     H      0.841450000000     0.709060000000     0.170980000000     0.0464888  
H162     H      0.657570000000     0.597860000000     0.089180000000     0.0305646  
H163     H      0.756920000000     0.639060000000     0.259520000000     0.0322874  
H164     H      0.691600000000     0.593750000000     0.212660000000     0.0470814  
H165     H      0.659660000000     0.579760000000     0.153020000000     0.0468581  
H166     H      0.801890000000     0.698060000000     0.114940000000     0.0462697  
H167     H      0.897120000000     0.690190000000     0.216340000000     0.0438984  
H168     H      0.599950000000     0.597900000000     0.111770000000     0.0425286  
H169     H      0.734610000000     0.572530000000     0.193650000000     0.0585832  
H170     H      0.767200000000     0.721850000000     0.141770000000     0.0575878  
H171     H      0.744960000000     0.581030000000     0.261780000000     0.0437442  
H172     H      0.736430000000     0.669580000000     0.067460000000     0.0308413  
H173     H      0.843300000000     0.657150000000     0.160620000000     0.0565963  
H174     H      0.650500000000     0.626560000000     0.169820000000     0.0595922  
H175     H      0.742940000000     0.724550000000     0.078380000000     0.0432925  
H176     H      0.846710000000     0.702660000000     0.235940000000     0.0324886  
H177     H      0.959880000000     0.412640000000     0.157510000000     0.0467107  
H178     H      0.761150000000     0.255490000000     0.130540000000     0.0310743  
H179     H      0.886070000000     0.480250000000     0.118740000000     0.0319832  
H180     H      0.809870000000     0.404490000000     0.118610000000     0.0465759  
H181     H      0.768750000000     0.327980000000     0.122160000000     0.0465491  
H182     H      0.917190000000     0.336160000000     0.157910000000     0.0464821  
H183     H      0.983980000000     0.485490000000     0.192570000000     0.0434624  
H184     H      0.746610000000     0.258940000000     0.081840000000     0.0428496  
H185     H      0.806620000000     0.399640000000     0.169110000000     0.0576653  
H186     H      0.927480000000     0.348660000000     0.108300000000     0.0577675  
H187     H      0.835410000000     0.478420000000     0.150900000000     0.0424289  
H188     H      0.847690000000     0.259680000000     0.149590000000     0.0311588  
H189     H      0.916820000000     0.404490000000     0.197760000000     0.0570748  
H190     H      0.809650000000     0.340920000000     0.079870000000     0.0582811  
H191     H      0.899760000000     0.268910000000     0.115540000000     0.0432522  
H192     H      0.972860000000     0.485740000000     0.142880000000     0.0325563  
N1       N      0.497940000000     0.980550000000     0.507810000000    -0.161123   
N2       N      0.543900000000     0.198920000000     0.567110000000    -0.161519   
N3       N      0.604270000000     0.388820000000     0.666420000000    -0.161423   
N4       N      0.368110000000     0.413190000000     0.690160000000    -0.161695   
N5       N      0.436060000000     0.748030000000     0.517420000000    -0.161477   
N6       N      0.323610000000     0.603030000000     0.676460000000    -0.160825   
N7       N      0.149710000000     0.431510000000     0.784040000000    -0.161807   
N8       N      0.002170000000     0.285760000000     0.935980000000    -0.161448   
N9       N      0.755840000000     0.250960000000     0.901450000000    -0.16133    
N10      N      0.765450000000     0.283960000000     0.705110000000    -0.162009   
N11      N      0.493490000000     0.699390000000     0.210930000000    -0.161565   
N12      N      0.477010000000     0.844400000000     0.348290000000    -0.161627   
N13      N      0.654260000000     0.878530000000     0.114050000000    -0.161669   
N14      N      0.778980000000     0.075720000000     0.996950000000    -0.160824   
N15      N      0.481390000000     0.689400000000     0.003130000000    -0.161217   
N16      N      0.422870000000     0.546540000000     0.842950000000    -0.16133    
N17      N      0.806640000000     0.389320000000     0.543660000000    -0.161089   
N18      N      0.805420000000     0.472250000000     0.361670000000    -0.161654   
N19      N      0.243160000000     0.805900000000     0.451040000000    -0.161802   
N20      N      0.062180000000     0.644950000000     0.318590000000    -0.160976   
N21      N      0.668690000000     0.664640000000     0.097680000000    -0.161628   
N22      N      0.823400000000     0.632200000000     0.238700000000    -0.160919   
N23      N      0.825520000000     0.264970000000     0.093900000000    -0.161944   
N24      N      0.908260000000     0.482750000000     0.175760000000    -0.162155   
O1       O      0.868330000000     0.515710000000     0.211390000000    -0.258131   
O2       O      0.992330000000     0.630500000000     0.276660000000    -0.249072   
O3       O      0.854360000000     0.542300000000     0.331710000000    -0.252697   
O4       O      0.823740000000     0.569510000000     0.264940000000    -0.251372   
O5       O      0.900860000000     0.624520000000     0.243550000000    -0.248119   
O6       O      0.850330000000     0.482850000000     0.305030000000    -0.254528   
O7       O      0.943580000000     0.520910000000     0.231740000000    -0.2566     
O8       O      0.979930000000     0.576200000000     0.314740000000    -0.255017   
O9       O      0.568940000000     0.719200000000     0.173090000000    -0.256759   
O10      O      0.655640000000     0.810150000000     0.113430000000    -0.249761   
O11      O      0.492220000000     0.681940000000     0.066410000000    -0.250767   
O12      O      0.588150000000     0.665480000000     0.109210000000    -0.25544    
O13      O      0.659250000000     0.728990000000     0.091370000000    -0.249669   
O14      O      0.559600000000     0.738010000000     0.036950000000    -0.256332   
O15      O      0.494130000000     0.708750000000     0.146790000000    -0.249964   
O16      O      0.577540000000     0.807030000000     0.104700000000    -0.256059   
O17      O      0.769980000000     0.200140000000     0.936750000000    -0.248725   
O18      O      0.768640000000     0.138700000000     0.985540000000    -0.249035   
O19      O      0.795530000000     0.241730000000     0.033380000000    -0.256734   
O20      O      0.937500000000     0.283760000000     0.977250000000    -0.252481   
O21      O      0.913560000000     0.224290000000     0.942110000000    -0.254638   
O22      O      0.870800000000     0.244390000000     0.050670000000    -0.254086   
O23      O      0.823830000000     0.272830000000     0.946380000000    -0.255024   
O24      O      0.850310000000     0.151290000000     0.998530000000    -0.251394   
O25      O      0.352490000000     0.578890000000     0.727980000000    -0.249232   
O26      O      0.220390000000     0.433710000000     0.749020000000    -0.252787   
O27      O      0.404090000000     0.551470000000     0.780570000000    -0.250546   
O28      O      0.357170000000     0.476980000000     0.693850000000    -0.255816   
O29      O      0.330800000000     0.430640000000     0.740920000000    -0.254825   
O30      O      0.341500000000     0.495790000000     0.813380000000    -0.25374    
O31      O      0.289640000000     0.526820000000     0.692650000000    -0.25289    
O32      O      0.238790000000     0.492980000000     0.782960000000    -0.255529   
O33      O      0.749500000000     0.334200000000     0.670440000000    -0.256638   
O34      O      0.590110000000     0.239000000000     0.620230000000    -0.252501   
O35      O      0.740870000000     0.321010000000     0.570580000000    -0.250943   
O36      O      0.647450000000     0.371570000000     0.619190000000    -0.252493   
O37      O      0.630090000000     0.333430000000     0.670800000000    -0.255666   
O38      O      0.749160000000     0.384560000000     0.591880000000    -0.248843   
O39      O      0.697180000000     0.261510000000     0.660310000000    -0.253927   
O40      O      0.625190000000     0.268770000000     0.566580000000    -0.252936   
O41      O      0.485110000000     0.851810000000     0.412650000000    -0.254647   
O42      O      0.436160000000     0.902240000000     0.509210000000    -0.253731   
O43      O      0.395520000000     0.768670000000     0.470700000000    -0.253163   
O44      O      0.334490000000     0.854830000000     0.435710000000    -0.252563   
O45      O      0.315820000000     0.798970000000     0.473840000000    -0.253546   
O46      O      0.455990000000     0.822650000000     0.505960000000    -0.251815   
O47      O      0.409390000000     0.840720000000     0.387540000000    -0.25378    
O48      O      0.478070000000     0.931760000000     0.457190000000    -0.254838   


