data_structure

_audit_creation_method RASPA-1.0
_audit_creation_date 2023-5-23
_audit_author_name 'Poobodin Mano'

_cell_length_a    32.6946
_cell_length_b    31.3019
_cell_length_c    36.0966
_cell_angle_alpha 90.0018
_cell_angle_beta  90.0016
_cell_angle_gamma 120
_cell_volume      31992.2

_symmetry_cell_setting          triclinic
_symmetry_space_group_name_Hall 'P 1'
_symmetry_space_group_name_H-M  'P 1'
_symmetry_Int_Tables_number     1

_symmetry_equiv_pos_as_xyz 'x,y,z'

loop_
_atom_site_label
_atom_site_type_symbol
_atom_site_fract_x
_atom_site_fract_y
_atom_site_fract_z
_atom_site_charge
C1       C      0.785990000000     0.580880000000     0.331550000000     0.356953   
C2       C      0.788810000000     0.542410000000     0.203610000000     0.357204   
C3       C      0.818410000000     0.700330000000     0.242970000000     0.353603   
C4       C      0.928840000000     0.648980000000     0.266690000000     0.353139   
C5       C      0.512300000000     0.779210000000     0.043110000000     0.357177   
C6       C      0.463060000000     0.785360000000     0.165480000000     0.354249   
C7       C      0.596460000000     0.768130000000     0.140520000000     0.353214   
C8       C      0.596820000000     0.919960000000     0.124460000000     0.356097   
C9       C      0.786940000000     0.364940000000     0.995960000000     0.353367   
C10      C      0.761400000000     0.289030000000     0.870380000000     0.354218   
C11      C      0.896100000000     0.338000000000     0.929820000000     0.352835   
C12      C      0.744940000000     0.207630000000     0.983140000000     0.352807   
C13      C      0.355730000000     0.598670000000     0.828880000000     0.353867   
C14      C      0.268540000000     0.558610000000     0.708190000000     0.354349   
C15      C      0.339070000000     0.474360000000     0.757050000000     0.353071   
C16      C      0.199350000000     0.475210000000     0.810950000000     0.353392   
C17      C      0.618980000000     0.301060000000     0.645990000000     0.355468   
C18      C      0.616980000000     0.393520000000     0.542890000000     0.355901   
C19      C      0.513880000000     0.223950000000     0.547260000000     0.356039   
C20      C      0.491880000000     0.328060000000     0.630250000000     0.356699   
C21      C      0.252330000000     0.728910000000     0.494180000000     0.35543    
C22      C      0.280350000000     0.776090000000     0.366410000000     0.355386   
C23      C      0.160320000000     0.781260000000     0.431370000000     0.355131   
C24      C      0.324210000000     0.894790000000     0.457340000000     0.354465   
C25      C      0.431380000000     0.057690000000     0.443270000000    -0.0402664  
C26      C      0.403600000000     0.966750000000     0.448480000000    -0.0239906  
C27      C      0.488200000000     0.117060000000     0.486660000000     0.0206262  
C28      C      0.432480000000     0.019060000000     0.462140000000     0.0208941  
C29      C      0.517950000000     0.169440000000     0.499890000000    -0.0236022  
C30      C      0.460800000000     0.029650000000     0.493850000000    -0.040597   
C31      C      0.488350000000     0.078300000000     0.506090000000    -0.0396174  
C32      C      0.458960000000     0.106350000000     0.455500000000    -0.0407547  
C33      C      0.345410000000     0.345250000000     0.711190000000    -0.0397966  
C34      C      0.347500000000     0.400600000000     0.762930000000    -0.0245848  
C35      C      0.410150000000     0.329390000000     0.701280000000     0.0209516  
C36      C      0.369550000000     0.376150000000     0.741240000000     0.0211998  
C37      C      0.432230000000     0.304970000000     0.679620000000    -0.0236301  
C38      C      0.414530000000     0.384260000000     0.750720000000    -0.041074   
C39      C      0.434760000000     0.361170000000     0.730790000000    -0.0395259  
C40      C      0.365620000000     0.322130000000     0.691290000000    -0.0408886  
C41      C      0.196700000000     0.571230000000     0.601070000000    -0.0410329  
C42      C      0.236250000000     0.539890000000     0.644760000000    -0.0240659  
C43      C      0.237070000000     0.618830000000     0.546290000000     0.0203077  
C44      C      0.236570000000     0.567770000000     0.610640000000     0.0208442  
C45      C      0.237350000000     0.646360000000     0.511990000000    -0.023433   
C46      C      0.277010000000     0.590870000000     0.588210000000    -0.0399821  
C47      C      0.277320000000     0.616370000000     0.556320000000    -0.040244   
C48      C      0.196990000000     0.596680000000     0.569160000000    -0.0400945  
C49      C      0.092830000000     0.386590000000     0.893550000000    -0.0397736  
C50      C      0.130520000000     0.396860000000     0.830780000000    -0.0244019  
C51      C      0.007570000000     0.344520000000     0.901000000000     0.0212533  
C52      C      0.087600000000     0.379570000000     0.855050000000     0.0208562  
C53      C      0.964490000000     0.324930000000     0.925350000000    -0.0245224  
C54      C      0.042080000000     0.355660000000     0.839620000000    -0.0409888  
C55      C      0.002360000000     0.338280000000     0.862440000000    -0.0395132  
C56      C      0.053120000000     0.369380000000     0.916360000000    -0.0413482  
C57      C      0.725190000000     0.273130000000     0.711900000000    -0.0414231  
C58      C      0.655390000000     0.254520000000     0.671080000000    -0.024215   
C59      C      0.714370000000     0.243840000000     0.775470000000     0.0199018  
C60      C      0.676070000000     0.250760000000     0.707390000000     0.0207421  
C61      C      0.734900000000     0.241500000000     0.812250000000    -0.0232448  
C62      C      0.646280000000     0.225510000000     0.737320000000    -0.0401213  
C63      C      0.665300000000     0.222220000000     0.771160000000    -0.0400213  
C64      C      0.744200000000     0.269800000000     0.745740000000    -0.0402973  
C65      C      0.326710000000     0.807160000000     0.246140000000    -0.0400318  
C66      C      0.268840000000     0.766460000000     0.298630000000    -0.0235373  
C67      C      0.348140000000     0.759820000000     0.205200000000     0.0205063  
C68      C      0.295550000000     0.764020000000     0.265440000000     0.0201595  
C69      C      0.378640000000     0.758380000000     0.174510000000    -0.0236859  
C70      C      0.290890000000     0.718780000000     0.254420000000    -0.0408825  
C71      C      0.317160000000     0.716720000000     0.224620000000    -0.0410915  
C72      C      0.352850000000     0.805070000000     0.216270000000    -0.0397735  
C73      C      0.625140000000     0.050350000000     0.029540000000    -0.0399945  
C74      C      0.668800000000     0.136820000000     0.003060000000    -0.0240966  
C75      C      0.619130000000     0.036310000000     0.096080000000     0.0249181  
C76      C      0.651750000000     0.101520000000     0.035320000000     0.0202153  
C77      C      0.600840000000     0.001230000000     0.128410000000    -0.0250218  
C78      C      0.661970000000     0.119820000000     0.071680000000    -0.0383417  
C79      C      0.645950000000     0.087490000000     0.101830000000    -0.0436432  
C80      C      0.608840000000     0.018010000000     0.059710000000    -0.0387052  
C81      C      0.422230000000     0.734630000000     0.898950000000    -0.0404131  
C82      C      0.418450000000     0.683450000000     0.843640000000    -0.0245779  
C83      C      0.488880000000     0.768300000000     0.941360000000     0.0199117  
C84      C      0.443270000000     0.713410000000     0.877500000000     0.021269   
C85      C      0.512360000000     0.795990000000     0.976340000000    -0.0230751  
C86      C      0.487020000000     0.719340000000     0.888450000000    -0.0410629  
C87      C      0.509600000000     0.746490000000     0.920210000000    -0.0401343  
C88      C      0.444800000000     0.761750000000     0.930720000000    -0.0398551  
C89      C      0.733920000000     0.568920000000     0.454360000000    -0.0407535  
C90      C      0.788780000000     0.588760000000     0.399580000000    -0.0234513  
C91      C      0.716880000000     0.500680000000     0.495690000000     0.0206665  
C92      C      0.763020000000     0.557680000000     0.432750000000     0.0197886  
C93      C      0.691750000000     0.469830000000     0.529100000000    -0.0236674  
C94      C      0.768200000000     0.517210000000     0.442470000000    -0.0401851  
C95      C      0.745110000000     0.488770000000     0.473600000000    -0.0401931  
C96      C      0.710930000000     0.540540000000     0.485560000000    -0.0410678  
C97      C      0.061440000000     0.674650000000     0.334820000000    -0.0413665  
C98      C      0.993590000000     0.635990000000     0.289320000000    -0.0245789  
C99      C      0.052830000000     0.703920000000     0.395160000000     0.0260244  
C100     C      0.014380000000     0.660020000000     0.326060000000     0.0250099  
C101     C      0.073220000000     0.726520000000     0.432380000000    -0.0247026  
C102     C      0.986510000000     0.666870000000     0.352370000000    -0.036893   
C103     C      0.005610000000     0.688810000000     0.386540000000    -0.0427899  
C104     C      0.080380000000     0.696070000000     0.369130000000    -0.0374727  
C105     C      0.666070000000     0.689160000000     0.211830000000    -0.0408419  
C106     C      0.612550000000     0.718660000000     0.185750000000    -0.025518   
C107     C      0.742500000000     0.746690000000     0.238540000000     0.0253189  
C108     C      0.658080000000     0.728250000000     0.203610000000     0.0221831  
C109     C      0.787130000000     0.756150000000     0.257900000000    -0.0249985  
C110     C      0.692520000000     0.776570000000     0.213190000000    -0.0373882  
C111     C      0.734460000000     0.785750000000     0.230370000000    -0.0429717  
C112     C      0.707860000000     0.698300000000     0.229280000000    -0.0377617  
C113     C      0.711630000000     0.404140000000     0.079820000000    -0.0399916  
C114     C      0.745130000000     0.408300000000     0.016070000000    -0.0243564  
C115     C      0.734430000000     0.478220000000     0.115980000000     0.0209279  
C116     C      0.741050000000     0.432780000000     0.050710000000     0.0210025  
C117     C      0.733020000000     0.502470000000     0.151620000000    -0.023621   
C118     C      0.767460000000     0.484260000000     0.054590000000    -0.0406902  
C119     C      0.764270000000     0.506800000000     0.087040000000    -0.0390087  
C120     C      0.708460000000     0.426690000000     0.112280000000    -0.0413881  
Cd1      Cd     0.829740000000     0.617080000000     0.260510000000     0.507234   
Cd2      Cd     0.542890000000     0.813860000000     0.117500000000     0.50793    
Cd3      Cd     0.797350000000     0.300320000000     0.944770000000     0.508651   
Cd4      Cd     0.291030000000     0.527300000000     0.776470000000     0.508658   
Cd5      Cd     0.560290000000     0.312070000000     0.591650000000     0.508522   
Cd6      Cd     0.254090000000     0.795320000000     0.437960000000     0.507637   
H1       H      0.455560000000     0.159170000000     0.529650000000     0.107541   
H2       H      0.398780000000     0.966090000000     0.417930000000     0.0517972  
H3       H      0.422100000000     0.945810000000     0.454470000000     0.051647   
H4       H      0.457710000000     0.135680000000     0.440540000000     0.0459443  
H5       H      0.409330000000     0.050190000000     0.418990000000     0.0464236  
H6       H      0.551250000000     0.174840000000     0.512550000000     0.0534368  
H7       H      0.461690000000     0.000270000000     0.509030000000     0.0468387  
H8       H      0.510040000000     0.085760000000     0.530590000000     0.0471472  
H9       H      0.528850000000     0.195420000000     0.476080000000     0.0495448  
H10      H      0.348800000000     0.959920000000     0.486670000000     0.10833    
H11      H      0.455180000000     0.364990000000     0.639740000000     0.107524   
H12      H      0.308320000000     0.377250000000     0.762670000000     0.0546441  
H13      H      0.359080000000     0.405310000000     0.792350000000     0.0496279  
H14      H      0.346470000000     0.298470000000     0.668170000000     0.0461068  
H15      H      0.310910000000     0.339000000000     0.703190000000     0.0472462  
H16      H      0.454710000000     0.296770000000     0.698080000000     0.0538444  
H17      H      0.433950000000     0.408430000000     0.773530000000     0.0459188  
H18      H      0.469530000000     0.367940000000     0.738470000000     0.0476935  
H19      H      0.404400000000     0.268780000000     0.668650000000     0.0498389  
H20      H      0.389850000000     0.465950000000     0.729090000000     0.106823   
H21      H      0.260560000000     0.710730000000     0.547730000000     0.107568   
H22      H      0.199520000000     0.511920000000     0.652580000000     0.0491416  
H23      H      0.255680000000     0.519790000000     0.639250000000     0.0532482  
H24      H      0.165890000000     0.598930000000     0.562190000000     0.0462829  
H25      H      0.165340000000     0.554150000000     0.618250000000     0.0451887  
H26      H      0.261880000000     0.645750000000     0.490900000000     0.0512565  
H27      H      0.308290000000     0.589070000000     0.595380000000     0.0481286  
H28      H      0.308870000000     0.633960000000     0.539370000000     0.0465822  
H29      H      0.201790000000     0.627730000000     0.498850000000     0.0514715  
H30      H      0.266320000000     0.610350000000     0.673860000000     0.107933   
H31      H      0.963280000000     0.392810000000     0.914940000000     0.107235   
H32      H      0.154300000000     0.384720000000     0.843000000000     0.054181   
H33      H      0.120670000000     0.380390000000     0.802600000000     0.0500797  
H34      H      0.057950000000     0.375050000000     0.946000000000     0.0453082  
H35      H      0.127690000000     0.405170000000     0.905920000000     0.0484228  
H36      H      0.939080000000     0.286100000000     0.917470000000     0.0559492  
H37      H      0.037240000000     0.350090000000     0.809970000000     0.0447248  
H38      H      0.967500000000     0.319620000000     0.850080000000     0.0485881  
H39      H      0.973920000000     0.324030000000     0.954820000000     0.0490906  
H40      H      0.141570000000     0.471220000000     0.837770000000     0.106874   
H41      H      0.738940000000     0.311750000000     0.824770000000     0.10766    
H42      H      0.679960000000     0.260300000000     0.647840000000     0.048685   
H43      H      0.621850000000     0.219620000000     0.665460000000     0.05307    
H44      H      0.782200000000     0.287530000000     0.748770000000     0.0452267  
H45      H      0.748780000000     0.293300000000     0.689280000000     0.0448343  
H46      H      0.710370000000     0.206790000000     0.827060000000     0.0514112  
H47      H      0.608320000000     0.208530000000     0.734500000000     0.0475995  
H48      H      0.641750000000     0.202840000000     0.794000000000     0.046485   
H49      H      0.768120000000     0.240480000000     0.808080000000     0.0494073  
H50      H      0.661710000000     0.322770000000     0.692470000000     0.107177   
H51      H      0.431660000000     0.773780000000     0.216990000000     0.10736    
H52      H      0.265080000000     0.799870000000     0.297500000000     0.0520128  
H53      H      0.232650000000     0.733750000000     0.299050000000     0.0468204  
H54      H      0.377200000000     0.838830000000     0.202020000000     0.0475072  
H55      H      0.331230000000     0.842510000000     0.254480000000     0.0461646  
H56      H      0.362660000000     0.720770000000     0.162340000000     0.0493677  
H57      H      0.267420000000     0.685200000000     0.269250000000     0.0450862  
H58      H      0.313640000000     0.681580000000     0.216930000000     0.0451304  
H59      H      0.380980000000     0.783290000000     0.151580000000     0.0531388  
H60      H      0.320420000000     0.758720000000     0.332000000000     0.107085   
H61      H      0.658600000000     0.986480000000     0.132670000000     0.106092   
H62      H      0.654980000000     0.117110000000     0.976340000000     0.0482378  
H63      H      0.655390000000     0.163020000000     0.006240000000     0.0536766  
H64      H      0.588090000000     0.978680000000     0.054710000000     0.0568179  
H65      H      0.616760000000     0.035420000000     0.001740000000     0.0452056  
H66      H      0.610290000000     0.022240000000     0.154860000000     0.041933   
H67      H      0.682350000000     0.159180000000     0.076680000000     0.0480493  
H68      H      0.654280000000     0.102500000000     0.129610000000     0.0436563  
H69      H      0.561650000000     0.979430000000     0.126940000000     0.0556902  
H70      H      0.739570000000     0.149880000000     0.014690000000     0.107523   
H71      H      0.475480000000     0.724650000000     0.004260000000     0.107592   
H72      H      0.398380000000     0.698980000000     0.829710000000     0.0543745  
H73      H      0.444450000000     0.684460000000     0.823270000000     0.0510677  
H74      H      0.427830000000     0.777500000000     0.947080000000     0.0464988  
H75      H      0.388200000000     0.729920000000     0.891210000000     0.0478535  
H76      H      0.551450000000     0.814930000000     0.973480000000     0.0502376  
H77      H      0.503530000000     0.702710000000     0.872530000000     0.0459132  
H78      H      0.543170000000     0.750340000000     0.928390000000     0.0462661  
H79      H      0.503690000000     0.825640000000     0.981430000000     0.050538   
H80      H      0.385670000000     0.620070000000     0.880890000000     0.107029   
H81      H      0.628480000000     0.433780000000     0.494720000000     0.107402   
H82      H      0.790420000000     0.625100000000     0.400570000000     0.049016   
H83      H      0.825820000000     0.596170000000     0.399540000000     0.050599   
H84      H      0.688630000000     0.549760000000     0.501900000000     0.0460244  
H85      H      0.729110000000     0.599720000000     0.447160000000     0.0446923  
H86      H      0.711700000000     0.452780000000     0.540870000000     0.0529372  
H87      H      0.790200000000     0.507750000000     0.425950000000     0.0472065  
H88      H      0.749490000000     0.457630000000     0.480590000000     0.0465722  
H89      H      0.690290000000     0.493570000000     0.551380000000     0.0497641  
H90      H      0.732270000000     0.531840000000     0.365940000000     0.106861   
H91      H      0.112350000000     0.804540000000     0.419950000000     0.106761   
H92      H      0.020980000000     0.634770000000     0.271820000000     0.0417952  
H93      H      0.965050000000     0.597420000000     0.294480000000     0.0572575  
H94      H      0.116580000000     0.706460000000     0.375300000000     0.0608511  
H95      H      0.083520000000     0.669220000000     0.315210000000     0.0443191  
H96      H      0.047290000000     0.732380000000     0.448250000000     0.0414997  
H97      H      0.949910000000     0.655190000000     0.346530000000     0.0596792  
H98      H      0.983370000000     0.693730000000     0.406300000000     0.0447251  
H99      H      0.080210000000     0.700510000000     0.448410000000     0.0555587  
H100     H      0.000020000000     0.697400000000     0.257280000000     0.106221   
H101     H      0.828980000000     0.759590000000     0.210430000000     0.106808   
H102     H      0.589760000000     0.678870000000     0.179120000000     0.0467784  
H103     H      0.593050000000     0.728860000000     0.205820000000     0.0581127  
H104     H      0.713120000000     0.667570000000     0.235650000000     0.0580577  
H105     H      0.639850000000     0.651530000000     0.205000000000     0.0457348  
H106     H      0.810120000000     0.796310000000     0.263150000000     0.0424412  
H107     H      0.686830000000     0.807180000000     0.207420000000     0.0524354  
H108     H      0.760450000000     0.823350000000     0.237480000000     0.0447354  
H109     H      0.777800000000     0.737250000000     0.285230000000     0.0561915  
H110     H      0.649550000000     0.750940000000     0.134270000000     0.107002   
H111     H      0.783730000000     0.483490000000     0.173910000000     0.107084   
H112     H      0.710770000000     0.374660000000     0.009800000000     0.053437   
H113     H      0.754320000000     0.433530000000     0.991910000000     0.0512843  
H114     H      0.685980000000     0.403920000000     0.134600000000     0.044693   
H115     H      0.691430000000     0.364320000000     0.077520000000     0.0460313  
H116     H      0.736390000000     0.539020000000     0.145780000000     0.0538863  
H117     H      0.790800000000     0.506940000000     0.032620000000     0.0469293  
H118     H      0.785320000000     0.546530000000     0.089690000000     0.0487584  
H119     H      0.698350000000     0.479970000000     0.165570000000     0.0471727  
H120     H      0.805160000000     0.408660000000     0.042850000000     0.107322   
N1       N      0.492050000000     0.182230000000     0.526620000000    -0.19879    
N2       N      0.357140000000     0.941650000000     0.466350000000    -0.198661   
N3       N      0.460170000000     0.336090000000     0.648610000000    -0.198781   
N4       N      0.361400000000     0.449310000000     0.747520000000    -0.198625   
N5       N      0.251250000000     0.697600000000     0.520610000000    -0.1991     
N6       N      0.258380000000     0.573640000000     0.676010000000    -0.198846   
N7       N      0.942470000000     0.355660000000     0.922330000000    -0.198311   
N8       N      0.156400000000     0.450740000000     0.827440000000    -0.198788   
N9       N      0.744610000000     0.284020000000     0.835380000000    -0.199178   
N10      N      0.646270000000     0.295850000000     0.671810000000    -0.199171   
N11      N      0.425940000000     0.772860000000     0.188400000000    -0.198731   
N12      N      0.293010000000     0.766820000000     0.332930000000    -0.199368   
N13      N      0.622150000000     0.969690000000     0.128420000000    -0.199254   
N14      N      0.720540000000     0.164280000000     0.001560000000    -0.198956   
N15      N      0.497690000000     0.762580000000     0.008220000000    -0.199368   
N16      N      0.385840000000     0.631990000000     0.853770000000    -0.198665   
N17      N      0.643550000000     0.431530000000     0.519700000000    -0.198794   
N18      N      0.765610000000     0.563660000000     0.365060000000    -0.199546   
N19      N      0.116170000000     0.774460000000     0.427460000000    -0.19896    
N20      N      0.975500000000     0.664090000000     0.269660000000    -0.198449   
N21      N      0.813280000000     0.739650000000     0.234600000000    -0.198505   
N22      N      0.622140000000     0.747190000000     0.151420000000    -0.198404   
N23      N      0.770570000000     0.507710000000     0.176620000000    -0.199236   
N24      N      0.781800000000     0.394780000000     0.020420000000    -0.198613   
O1       O      0.774110000000     0.572310000000     0.209350000000    -0.255205   
O2       O      0.897350000000     0.609140000000     0.281030000000    -0.252882   
O3       O      0.765790000000     0.558930000000     0.301880000000    -0.254364   
O4       O      0.800430000000     0.674630000000     0.271790000000    -0.256224   
O5       O      0.841580000000     0.687630000000     0.222090000000    -0.246504   
O6       O      0.826000000000     0.619450000000     0.328430000000    -0.254614   
O7       O      0.821810000000     0.546530000000     0.224220000000    -0.253902   
O8       O      0.914780000000     0.674430000000     0.249460000000    -0.249677   
O9       O      0.458840000000     0.784200000000     0.130560000000    -0.251124   
O10      O      0.616420000000     0.893980000000     0.126040000000    -0.253272   
O11      O      0.539260000000     0.824530000000     0.050090000000    -0.255512   
O12      O      0.561970000000     0.764020000000     0.159270000000    -0.248494   
O13      O      0.606160000000     0.793050000000     0.110960000000    -0.250483   
O14      O      0.499460000000     0.749870000000     0.070320000000    -0.25269    
O15      O      0.503840000000     0.799130000000     0.178210000000    -0.248454   
O16      O      0.552670000000     0.897210000000     0.119280000000    -0.257416   
O17      O      0.770060000000     0.326140000000     0.889920000000    -0.248417   
O18      O      0.789580000000     0.231030000000     0.982660000000    -0.247084   
O19      O      0.760450000000     0.347220000000     0.967930000000    -0.248542   
O20      O      0.877830000000     0.365210000000     0.927210000000    -0.252322   
O21      O      0.869030000000     0.293730000000     0.939580000000    -0.247205   
O22      O      0.818530000000     0.353310000000     0.000290000000    -0.253419   
O23      O      0.769180000000     0.257070000000     0.885060000000    -0.255619   
O24      O      0.724390000000     0.226740000000     0.965810000000    -0.254747   
O25      O      0.287720000000     0.588140000000     0.734920000000    -0.24708    
O26      O      0.219150000000     0.452800000000     0.797500000000    -0.247963   
O27      O      0.354080000000     0.610120000000     0.795520000000    -0.24762    
O28      O      0.351610000000     0.516500000000     0.743700000000    -0.254087   
O29      O      0.304750000000     0.456840000000     0.779490000000    -0.247677   
O30      O      0.327760000000     0.554440000000     0.838100000000    -0.254972   
O31      O      0.259520000000     0.514680000000     0.712940000000    -0.255478   
O32      O      0.221640000000     0.521740000000     0.808440000000    -0.25373    
O33      O      0.632620000000     0.388530000000     0.573690000000    -0.252664   
O34      O      0.499410000000     0.293470000000     0.639100000000    -0.251422   
O35      O      0.599690000000     0.270420000000     0.619890000000    -0.254061   
O36      O      0.557820000000     0.253740000000     0.544800000000    -0.250916   
O37      O      0.491090000000     0.234810000000     0.570040000000    -0.251983   
O38      O      0.611510000000     0.336970000000     0.647010000000    -0.250783   
O39      O      0.575170000000     0.361200000000     0.534600000000    -0.250584   
O40      O      0.515540000000     0.355100000000     0.603420000000    -0.252678   
O41      O      0.301180000000     0.775280000000     0.395700000000    -0.248824   
O42      O      0.284170000000     0.873300000000     0.472860000000    -0.246411   
O43      O      0.241670000000     0.715570000000     0.460830000000    -0.251589   
O44      O      0.167400000000     0.746430000000     0.440370000000    -0.258213   
O45      O      0.196500000000     0.822880000000     0.425590000000    -0.249776   
O46      O      0.264010000000     0.772990000000     0.501800000000    -0.252842   
O47      O      0.247370000000     0.785880000000     0.369970000000    -0.256917   
O48      O      0.331930000000     0.870480000000     0.433080000000    -0.25328    


