data_structure

_audit_creation_method RASPA-1.0
_audit_creation_date 2023-6-5
_audit_author_name 'Poobodin Mano'

_cell_length_a    42.7081
_cell_length_b    43.0729
_cell_length_c    24.0847
_cell_angle_alpha 90.0494
_cell_angle_beta  89.8643
_cell_angle_gamma 90
_cell_volume      44305.2

_symmetry_cell_setting          triclinic
_symmetry_space_group_name_Hall 'P 1'
_symmetry_space_group_name_H-M  'P 1'
_symmetry_Int_Tables_number     1

_symmetry_equiv_pos_as_xyz 'x,y,z'

loop_
_atom_site_label
_atom_site_type_symbol
_atom_site_fract_x
_atom_site_fract_y
_atom_site_fract_z
_atom_site_charge
C1       C      0.320840000000     0.316490000000     0.047650000000     0.352974   
C2       C      0.426980000000     0.344960000000     0.974130000000     0.352479   
C3       C      0.341200000000     0.320950000000     0.868620000000     0.35391    
C4       C      0.349750000000     0.415560000000     0.990300000000     0.3537     
C5       C      0.341690000000     0.636500000000     0.981850000000     0.353878   
C6       C      0.295010000000     0.735590000000     0.020480000000     0.355034   
C7       C      0.403980000000     0.719530000000     0.972150000000     0.354493   
C8       C      0.317680000000     0.713600000000     0.843550000000     0.353843   
C9       C      0.758640000000     0.323450000000     0.932340000000     0.355153   
C10      C      0.650340000000     0.325520000000     0.002950000000     0.353597   
C11      C      0.736210000000     0.330790000000     0.117190000000     0.354084   
C12      C      0.710120000000     0.414080000000     0.984710000000     0.354662   
C13      C      0.723210000000     0.742180000000     0.920970000000     0.356433   
C14      C      0.710340000000     0.634490000000     0.965980000000     0.356539   
C15      C      0.719940000000     0.714800000000     0.104410000000     0.354637   
C16      C      0.628940000000     0.701690000000     0.995460000000     0.353604   
C17      C      0.854480000000     0.231130000000     0.619370000000     0.354779   
C18      C      0.839170000000     0.142740000000     0.492780000000     0.353953   
C19      C      0.836850000000     0.244430000000     0.434620000000     0.354109   
C20      C      0.933130000000     0.195350000000     0.506680000000     0.354779   
C21      C      0.905300000000     0.845420000000     0.512280000000     0.355727   
C22      C      0.807840000000     0.842300000000     0.606510000000     0.354765   
C23      C      0.834920000000     0.924760000000     0.483610000000     0.355901   
C24      C      0.807500000000     0.823890000000     0.420370000000     0.356398   
C25      C      0.127560000000     0.841520000000     0.487230000000     0.354367   
C26      C      0.204830000000     0.821230000000     0.343910000000     0.355061   
C27      C      0.209070000000     0.906720000000     0.472600000000     0.354438   
C28      C      0.229530000000     0.799570000000     0.519430000000     0.354563   
C29      C      0.227390000000     0.128380000000     0.475510000000     0.355324   
C30      C      0.232850000000     0.211670000000     0.353400000000     0.353784   
C31      C      0.156320000000     0.204660000000     0.505540000000     0.353795   
C32      C      0.259460000000     0.233290000000     0.533610000000     0.354206   
C33      C      0.209330000000     0.036720000000     0.542890000000    -0.0399969  
C34      C      0.244780000000     0.082910000000     0.529350000000    -0.024328   
C35      C      0.228670000000     0.983890000000     0.534030000000     0.0206748  
C36      C      0.239140000000     0.048380000000     0.529810000000     0.0207847  
C37      C      0.223100000000     0.949380000000     0.536060000000    -0.0237018  
C38      C      0.263550000000     0.027560000000     0.517840000000    -0.0408945  
C39      C      0.258330000000     0.995540000000     0.519830000000    -0.0403106  
C40      C      0.204090000000     0.004710000000     0.544720000000    -0.0403087  
C41      C      0.034480000000     0.850730000000     0.580550000000    -0.0408206  
C42      C      0.086220000000     0.826560000000     0.553630000000    -0.0239551  
C43      C      0.985160000000     0.824590000000     0.562150000000     0.0204785  
C44      C      0.050980000000     0.825960000000     0.556380000000     0.0205629  
C45      C      0.949920000000     0.824110000000     0.564600000000    -0.0235364  
C46      C      0.034310000000     0.800770000000     0.534180000000    -0.0400797  
C47      C      0.001620000000     0.800130000000     0.536900000000    -0.0404489  
C48      C      0.001790000000     0.850090000000     0.583270000000    -0.039799   
C49      C      0.845310000000     0.052120000000     0.408560000000    -0.0396033  
C50      C      0.818420000000     0.103190000000     0.428010000000    -0.024721   
C51      C      0.818750000000     0.002880000000     0.423050000000     0.0203771  
C52      C      0.818520000000     0.068230000000     0.426310000000     0.0219365  
C53      C      0.819220000000     0.967920000000     0.422550000000    -0.0233795  
C54      C      0.791990000000     0.051410000000     0.443210000000    -0.0415633  
C55      C      0.792160000000     0.018960000000     0.441800000000    -0.039798   
C56      C      0.845450000000     0.019680000000     0.407040000000    -0.0400413  
C57      C      0.055200000000     0.200030000000     0.591250000000    -0.042204   
C58      C      0.112650000000     0.191890000000     0.569600000000    -0.0249919  
C59      C      0.014780000000     0.172720000000     0.539750000000     0.0207921  
C60      C      0.078470000000     0.185790000000     0.558760000000     0.0218209  
C61      C      0.980660000000     0.165610000000     0.530390000000    -0.023964   
C62      C      0.069630000000     0.165290000000     0.516230000000    -0.038874   
C63      C      0.038010000000     0.158910000000     0.506610000000    -0.0410303  
C64      C      0.023590000000     0.193540000000     0.581790000000    -0.0389316  
C65      C      0.734730000000     0.829650000000     0.741750000000    -0.0405854  
C66      C      0.778200000000     0.857210000000     0.690430000000    -0.0241234  
C67      C      0.741070000000     0.812770000000     0.837330000000     0.0206508  
C68      C      0.765170000000     0.841960000000     0.741800000000     0.0208264  
C69      C      0.728570000000     0.796090000000     0.887660000000    -0.023475   
C70      C      0.783610000000     0.839240000000     0.789730000000    -0.0402216  
C71      C      0.771670000000     0.824660000000     0.837110000000    -0.0406522  
C72      C      0.722810000000     0.815070000000     0.789120000000    -0.0397795  
C73      C      0.733730000000     0.735010000000     0.298800000000    -0.0416912  
C74      C      0.710410000000     0.725540000000     0.203770000000    -0.0247489  
C75      C      0.747170000000     0.787100000000     0.329500000000     0.0203471  
C76      C      0.724460000000     0.746670000000     0.246940000000     0.0212709  
C77      C      0.758390000000     0.808730000000     0.374430000000    -0.0233653  
C78      C      0.727300000000     0.778590000000     0.236260000000    -0.0396091  
C79      C      0.738740000000     0.798640000000     0.277130000000    -0.0404574  
C80      C      0.745050000000     0.755090000000     0.339750000000    -0.0398531  
C81      C      0.845080000000     0.287150000000     0.841420000000    -0.040908   
C82      C      0.808890000000     0.327610000000     0.882130000000    -0.0239055  
C83      C      0.854340000000     0.283810000000     0.741990000000     0.0202668  
C84      C      0.824770000000     0.312360000000     0.833300000000     0.0209216  
C85      C      0.869470000000     0.268130000000     0.692890000000    -0.0232822  
C86      C      0.818970000000     0.322890000000     0.779150000000    -0.040179   
C87      C      0.833600000000     0.308670000000     0.733810000000    -0.0395314  
C88      C      0.859680000000     0.272900000000     0.796060000000    -0.0405344  
C89      C      0.741970000000     0.299900000000     0.291470000000    -0.0406119  
C90      C      0.741590000000     0.341250000000     0.217400000000    -0.024473   
C91      C      0.782090000000     0.298480000000     0.362790000000     0.0206266  
C92      C      0.755890000000     0.326330000000     0.267920000000     0.0213448  
C93      C      0.796380000000     0.283420000000     0.413160000000    -0.0236336  
C94      C      0.783220000000     0.338530000000     0.291780000000    -0.0405642  
C95      C      0.796240000000     0.324690000000     0.338860000000    -0.0404528  
C96      C      0.755070000000     0.285960000000     0.338370000000    -0.0396984  
C97      C      0.723320000000     0.535190000000     0.884950000000    -0.0420001  
C98      C      0.704930000000     0.590330000000     0.900920000000    -0.024814   
C99      C      0.693760000000     0.491220000000     0.920410000000     0.0197215  
C100     C      0.701470000000     0.555780000000     0.908350000000     0.0217141  
C101     C      0.689760000000     0.456670000000     0.926920000000    -0.0230854  
C102     C      0.676080000000     0.543870000000     0.938710000000    -0.0396556  
C103     C      0.672320000000     0.511820000000     0.944910000000    -0.0402506  
C104     C      0.719520000000     0.503130000000     0.891050000000    -0.03963    
C105     C      0.248890000000     0.722300000000     0.706350000000    -0.0401254  
C106     C      0.292390000000     0.695150000000     0.757740000000    -0.0242929  
C107     C      0.252660000000     0.733150000000     0.607550000000     0.0210845  
C108     C      0.278760000000     0.708710000000     0.705450000000     0.0210233  
C109     C      0.238770000000     0.746620000000     0.555440000000    -0.0238396  
C110     C      0.295760000000     0.707990000000     0.655490000000    -0.0406077  
C111     C      0.282830000000     0.720200000000     0.606910000000    -0.0410579  
C112     C      0.235980000000     0.734540000000     0.657790000000    -0.0392821  
C113     C      0.228220000000     0.739380000000     0.160430000000    -0.0397226  
C114     C      0.241510000000     0.741750000000     0.058350000000    -0.0244198  
C115     C      0.200650000000     0.781520000000     0.206550000000     0.0206756  
C116     C      0.227420000000     0.755730000000     0.110050000000     0.0214964  
C117     C      0.186700000000     0.795370000000     0.258460000000    -0.0236981  
C118     C      0.213660000000     0.785320000000     0.108500000000    -0.0412513  
C119     C      0.200460000000     0.798180000000     0.156470000000    -0.0404384  
C120     C      0.214980000000     0.752220000000     0.208360000000    -0.0397132  
C121     C      0.537270000000     0.729220000000     0.049960000000    -0.0395012  
C122     C      0.577920000000     0.687420000000     0.036180000000    -0.0242964  
C123     C      0.481950000000     0.719390000000     0.034290000000     0.0217864  
C124     C      0.544490000000     0.698600000000     0.034480000000     0.0205072  
C125     C      0.448310000000     0.729950000000     0.035680000000    -0.024938   
C126     C      0.520210000000     0.678470000000     0.018770000000    -0.0411193  
C127     C      0.489170000000     0.688760000000     0.018880000000    -0.0388744  
C128     C      0.506250000000     0.739570000000     0.049720000000    -0.0422864  
C129     C      0.312920000000     0.245070000000     0.735410000000    -0.0405905  
C130     C      0.344340000000     0.276510000000     0.804370000000    -0.0240469  
C131     C      0.319050000000     0.252670000000     0.635980000000     0.0223968  
C132     C      0.334980000000     0.268540000000     0.745790000000     0.0204637  
C133     C      0.310890000000     0.243450000000     0.577450000000    -0.0251061  
C134     C      0.348740000000     0.284240000000     0.700890000000    -0.0394951  
C135     C      0.340760000000     0.276450000000     0.646380000000    -0.0423152  
C136     C      0.305070000000     0.237180000000     0.680900000000    -0.0388961  
C137     C      0.233150000000     0.278450000000     0.220790000000    -0.0397656  
C138     C      0.215090000000     0.227190000000     0.259790000000    -0.0247932  
C139     C      0.253820000000     0.282770000000     0.127040000000     0.0201718  
C140     C      0.228340000000     0.246490000000     0.213190000000     0.0217528  
C141     C      0.268350000000     0.301960000000     0.081520000000    -0.0233413  
C142     C      0.236680000000     0.232720000000     0.162410000000    -0.0415992  
C143     C      0.249390000000     0.250730000000     0.119670000000    -0.0398483  
C144     C      0.245920000000     0.296440000000     0.178110000000    -0.0396693  
C145     C      0.536410000000     0.359140000000     0.937830000000    -0.0409993  
C146     C      0.478150000000     0.350210000000     0.927450000000    -0.0243856  
C147     C      0.572820000000     0.315900000000     0.944480000000     0.022483   
C148     C      0.511130000000     0.338390000000     0.934490000000     0.0206312  
C149     C      0.605980000000     0.304160000000     0.948600000000    -0.0252747  
C150     C      0.516920000000     0.306310000000     0.936250000000    -0.0393209  
C151     C      0.547510000000     0.295140000000     0.941380000000    -0.042449   
C152     C      0.567020000000     0.347970000000     0.942600000000    -0.0386654  
C153     C      0.366260000000     0.513180000000     0.064470000000    -0.0407418  
C154     C      0.343370000000     0.459290000000     0.055470000000    -0.0242373  
C155     C      0.334270000000     0.559190000000     0.050630000000     0.0200283  
C156     C      0.340320000000     0.494120000000     0.053580000000     0.0208508  
C157     C      0.331330000000     0.594000000000     0.047890000000    -0.0235012  
C158     C      0.311430000000     0.507830000000     0.040530000000    -0.0408255  
C159     C      0.308470000000     0.540130000000     0.038790000000    -0.0400334  
C160     C      0.363260000000     0.545490000000     0.062950000000    -0.0404025  
Cd1      Cd     0.359740000000     0.350200000000     0.970780000000     0.508932   
Cd2      Cd     0.339720000000     0.701570000000     0.954410000000     0.508629   
Cd3      Cd     0.713640000000     0.348650000000     0.009310000000     0.50826    
Cd4      Cd     0.696260000000     0.697780000000     0.996530000000     0.508371   
Cd5      Cd     0.866150000000     0.203100000000     0.512830000000     0.508356   
Cd6      Cd     0.839300000000     0.859080000000     0.505030000000     0.508584   
Cd7      Cd     0.192680000000     0.842530000000     0.455350000000     0.5087     
Cd8      Cd     0.219320000000     0.194610000000     0.466650000000     0.508096   
H1       H      0.218570000000     0.951390000000     0.445840000000     0.107774   
H2       H      0.234230000000     0.093440000000     0.567240000000     0.0537886  
H3       H      0.270250000000     0.088270000000     0.530090000000     0.0497887  
H4       H      0.180920000000     0.996170000000     0.554870000000     0.0458595  
H5       H      0.190170000000     0.052440000000     0.551850000000     0.0476124  
H6       H      0.243900000000     0.937450000000     0.553800000000     0.0520324  
H7       H      0.286670000000     0.036070000000     0.507230000000     0.0453399  
H8       H      0.277440000000     0.979820000000     0.510580000000     0.0471363  
H9       H      0.203230000000     0.943830000000     0.564330000000     0.0517385  
H10      H      0.223900000000     0.083220000000     0.446700000000     0.10682    
H11      H      0.950760000000     0.845300000000     0.482300000000     0.107704   
H12      H      0.095960000000     0.839890000000     0.589210000000     0.049738   
H13      H      0.095770000000     0.802560000000     0.556280000000     0.0523994  
H14      H      0.989460000000     0.869440000000     0.602000000000     0.0469104  
H15      H      0.046920000000     0.870550000000     0.597280000000     0.0455749  
H16      H      0.941220000000     0.799800000000     0.566990000000     0.0506526  
H17      H      0.046620000000     0.781630000000     0.514750000000     0.0469479  
H18      H      0.989160000000     0.780520000000     0.519460000000     0.0463274  
H19      H      0.941540000000     0.835760000000     0.603130000000     0.0527569  
H20      H      0.080660000000     0.851370000000     0.475240000000     0.107383   
H21      H      0.841490000000     0.970990000000     0.503870000000     0.107689   
H22      H      0.834940000000     0.112720000000     0.396540000000     0.0552954  
H23      H      0.794630000000     0.112030000000     0.417950000000     0.0475756  
H24      H      0.866380000000     0.007650000000     0.393400000000     0.047021   
H25      H      0.866140000000     0.064660000000     0.395990000000     0.0478332  
H26      H      0.795130000000     0.958530000000     0.417230000000     0.0514652  
H27      H      0.771230000000     0.063420000000     0.457650000000     0.0453369  
H28      H      0.771530000000     0.006400000000     0.455270000000     0.0459855  
H29      H      0.832910000000     0.959340000000     0.386300000000     0.0511316  
H30      H      0.822180000000     0.100040000000     0.517980000000     0.107376   
H31      H      0.977790000000     0.208550000000     0.482860000000     0.107736   
H32      H      0.115770000000     0.205630000000     0.608290000000     0.0460779  
H33      H      0.124820000000     0.169280000000     0.575300000000     0.0552957  
H34      H      0.005950000000     0.204610000000     0.607460000000     0.0483805  
H35      H      0.061460000000     0.216010000000     0.624150000000     0.044289   
H36      H      0.977850000000     0.144850000000     0.503360000000     0.0479417  
H37      H      0.087260000000     0.154160000000     0.490650000000     0.0507133  
H38      H      0.031720000000     0.142980000000     0.473640000000     0.0453909  
H39      H      0.969420000000     0.159690000000     0.570760000000     0.054344   
H40      H      0.113100000000     0.226410000000     0.503930000000     0.107514   
H41      H      0.751390000000     0.754650000000     0.854700000000     0.107758   
H42      H      0.759200000000     0.868930000000     0.666880000000     0.0510536  
H43      H      0.795670000000     0.875300000000     0.701750000000     0.0527369  
H44      H      0.699360000000     0.805500000000     0.788150000000     0.0475485  
H45      H      0.720300000000     0.831170000000     0.704930000000     0.0463359  
H46      H      0.738840000000     0.806020000000     0.926170000000     0.0493873  
H47      H      0.807290000000     0.848230000000     0.790330000000     0.0467427  
H48      H      0.786340000000     0.822570000000     0.873550000000     0.0460871  
H49      H      0.702820000000     0.799530000000     0.891260000000     0.0534675  
H50      H      0.792630000000     0.810650000000     0.665170000000     0.107344   
H51      H      0.805770000000     0.793280000000     0.354080000000     0.107641   
H52      H      0.706270000000     0.701900000000     0.220790000000     0.0484244  
H53      H      0.687270000000     0.735060000000     0.191160000000     0.0549532  
H54      H      0.751770000000     0.745740000000     0.379720000000     0.0472285  
H55      H      0.731830000000     0.710470000000     0.307900000000     0.0448347  
H56      H      0.751270000000     0.833080000000     0.365540000000     0.0511175  
H57      H      0.720320000000     0.787990000000     0.196460000000     0.0492912  
H58      H      0.740520000000     0.823220000000     0.268160000000     0.0457466  
H59      H      0.746990000000     0.802590000000     0.414530000000     0.0514965  
H60      H      0.755050000000     0.726470000000     0.159840000000     0.107338   
H61      H      0.829110000000     0.237090000000     0.691880000000     0.108053   
H62      H      0.824460000000     0.327020000000     0.919080000000     0.0501294  
H63      H      0.803830000000     0.352440000000     0.872970000000     0.0524654  
H64      H      0.875160000000     0.253380000000     0.803130000000     0.0452982  
H65      H      0.849540000000     0.278450000000     0.882840000000     0.0462305  
H66      H      0.875570000000     0.285640000000     0.660670000000     0.0527699  
H67      H      0.803080000000     0.342060000000     0.771980000000     0.0464941  
H68      H      0.828750000000     0.317030000000     0.692300000000     0.0472374  
H69      H      0.891940000000     0.257090000000     0.705230000000     0.0483099  
H70      H      0.774890000000     0.289860000000     0.878050000000     0.107998   
H71      H      0.832500000000     0.265280000000     0.357660000000     0.107785   
H72      H      0.715920000000     0.343870000000     0.223770000000     0.0529823  
H73      H      0.751290000000     0.364900000000     0.210290000000     0.0530379  
H74      H      0.744050000000     0.265500000000     0.355750000000     0.0464491  
H75      H      0.721000000000     0.290040000000     0.273400000000     0.0477723  
H76      H      0.804370000000     0.301580000000     0.442770000000     0.0489963  
H77      H      0.794480000000     0.358770000000     0.274020000000     0.0459767  
H78      H      0.817340000000     0.334410000000     0.356700000000     0.0462784  
H79      H      0.778630000000     0.269400000000     0.435940000000     0.0529241  
H80      H      0.759010000000     0.301150000000     0.171130000000     0.107163   
H81      H      0.721600000000     0.460220000000     0.997470000000     0.107543   
H82      H      0.721560000000     0.595660000000     0.866630000000     0.0481802  
H83      H      0.681830000000     0.600460000000     0.889670000000     0.0554039  
H84      H      0.736570000000     0.487590000000     0.872630000000     0.0461737  
H85      H      0.743240000000     0.543900000000     0.861800000000     0.0448328  
H86      H      0.664740000000     0.450700000000     0.934190000000     0.0491641  
H87      H      0.659130000000     0.559410000000     0.957450000000     0.0488591  
H88      H      0.652570000000     0.503090000000     0.968490000000     0.0454093  
H89      H      0.696530000000     0.444640000000     0.887780000000     0.0508131  
H90      H      0.731300000000     0.591700000000     0.978080000000     0.107364   
H91      H      0.267040000000     0.787940000000     0.569500000000     0.107337   
H92      H      0.273630000000     0.683720000000     0.782540000000     0.0531386  
H93      H      0.310140000000     0.677090000000     0.747700000000     0.0514626  
H94      H      0.212910000000     0.744960000000     0.659320000000     0.0481574  
H95      H      0.235580000000     0.723380000000     0.744640000000     0.0472386  
H96      H      0.247760000000     0.733990000000     0.518420000000     0.0467212  
H97      H      0.318990000000     0.697920000000     0.654080000000     0.0459837  
H98      H      0.296300000000     0.719450000000     0.568760000000     0.0449896  
H99      H      0.212910000000     0.743370000000     0.555470000000     0.054525   
H100     H      0.310320000000     0.741630000000     0.775060000000     0.107821   
H101     H      0.232880000000     0.815060000000     0.274580000000     0.107874   
H102     H      0.240080000000     0.715960000000     0.059940000000     0.0546844  
H103     H      0.228300000000     0.749550000000     0.021160000000     0.0474152  
H104     H      0.215840000000     0.739260000000     0.246860000000     0.0471717  
H105     H      0.239060000000     0.716680000000     0.162620000000     0.0477309  
H106     H      0.167930000000     0.812240000000     0.247840000000     0.0508491  
H107     H      0.213160000000     0.798450000000     0.070170000000     0.0452889  
H108     H      0.190010000000     0.821060000000     0.154480000000     0.0460453  
H109     H      0.175200000000     0.776920000000     0.283610000000     0.0529637  
H110     H      0.281690000000     0.772080000000     0.071190000000     0.107332   
H111     H      0.448000000000     0.733330000000     0.945710000000     0.10717    
H112     H      0.587530000000     0.691620000000     0.078430000000     0.0539014  
H113     H      0.579510000000     0.662030000000     0.028250000000     0.0490792  
H114     H      0.501240000000     0.763250000000     0.062030000000     0.044403   
H115     H      0.555680000000     0.745040000000     0.062430000000     0.0480119  
H116     H      0.435280000000     0.715670000000     0.066480000000     0.0563035  
H117     H      0.525220000000     0.654730000000     0.006850000000     0.0445616  
H118     H      0.470730000000     0.672800000000     0.007160000000     0.0504891  
H119     H      0.446700000000     0.754480000000     0.049790000000     0.0472481  
H120     H      0.586620000000     0.717570000000     0.964920000000     0.106473   
H121     H      0.269480000000     0.272650000000     0.579730000000     0.106563   
H122     H      0.335440000000     0.259010000000     0.834470000000     0.0497052  
H123     H      0.370330000000     0.276450000000     0.807450000000     0.0525721  
H124     H      0.288200000000     0.218830000000     0.673670000000     0.0513931  
H125     H      0.301970000000     0.232700000000     0.769440000000     0.0451298  
H126     H      0.326280000000     0.255650000000     0.547240000000     0.0464245  
H127     H      0.365760000000     0.302440000000     0.708130000000     0.047802   
H128     H      0.351760000000     0.288800000000     0.612380000000     0.0445039  
H129     H      0.315260000000     0.218160000000     0.572170000000     0.0572945  
H130     H      0.317150000000     0.319090000000     0.794190000000     0.107559   
H131     H      0.313540000000     0.286370000000     0.113290000000     0.107944   
H132     H      0.195610000000     0.240010000000     0.280330000000     0.0559511  
H133     H      0.205390000000     0.204970000000     0.243770000000     0.0493312  
H134     H      0.249670000000     0.321020000000     0.184930000000     0.0466461  
H135     H      0.227200000000     0.289410000000     0.259920000000     0.0492671  
H136     H      0.260180000000     0.293650000000     0.040260000000     0.0503221  
H137     H      0.233510000000     0.208030000000     0.155940000000     0.0452382  
H138     H      0.255860000000     0.239680000000     0.080880000000     0.0458872  
H139     H      0.260640000000     0.326580000000     0.084700000000     0.0516474  
H140     H      0.263060000000     0.221260000000     0.288440000000     0.107274   
H141     H      0.607220000000     0.314210000000     0.036800000000     0.106292   
H142     H      0.477670000000     0.375830000000     0.921760000000     0.0493211  
H143     H      0.467960000000     0.339710000000     0.889330000000     0.0535609  
H144     H      0.586240000000     0.364340000000     0.944650000000     0.051774   
H145     H      0.532520000000     0.383970000000     0.936320000000     0.0446658  
H146     H      0.606370000000     0.278350000000     0.948480000000     0.0461988  
H147     H      0.497730000000     0.289950000000     0.933440000000     0.048496   
H148     H      0.551410000000     0.270300000000     0.942530000000     0.0443858  
H149     H      0.619290000000     0.312000000000     0.911440000000     0.0576946  
H150     H      0.469030000000     0.333800000000     0.011740000000     0.107234   
H151     H      0.352440000000     0.590570000000     0.965450000000     0.10692    
H152     H      0.364500000000     0.452180000000     0.079250000000     0.0520381  
H153     H      0.322700000000     0.449150000000     0.077010000000     0.0507669  
H154     H      0.383540000000     0.559830000000     0.071330000000     0.0455615  
H155     H      0.388820000000     0.503080000000     0.074140000000     0.0453485  
H156     H      0.306580000000     0.601320000000     0.054210000000     0.0514822  
H157     H      0.291230000000     0.493480000000     0.031550000000     0.0468772  
H158     H      0.286030000000     0.550260000000     0.028330000000     0.0459267  
H159     H      0.344850000000     0.604850000000     0.082220000000     0.0499903  
H160     H      0.342200000000     0.460780000000     0.964830000000     0.107407   
N1       N      0.216770000000     0.936920000000     0.480580000000    -0.198695   
N2       N      0.230930000000     0.097210000000     0.479970000000    -0.199136   
N3       N      0.936350000000     0.839250000000     0.515810000000    -0.198839   
N4       N      0.096900000000     0.840960000000     0.501840000000    -0.199172   
N5       N      0.832860000000     0.955680000000     0.473820000000    -0.199026   
N6       N      0.826750000000     0.114220000000     0.483640000000    -0.198393   
N7       N      0.964670000000     0.191960000000     0.504470000000    -0.199023   
N8       N      0.126500000000     0.209230000000     0.523300000000    -0.198488   
N9       N      0.735810000000     0.762870000000     0.884930000000    -0.198816   
N10      N      0.793180000000     0.834170000000     0.654300000000    -0.198822   
N11      N      0.792480000000     0.807330000000     0.380640000000    -0.199072   
N12      N      0.730960000000     0.722960000000     0.155140000000    -0.198853   
N13      N      0.848760000000     0.244430000000     0.669400000000    -0.198837   
N14      N      0.779670000000     0.311500000000     0.895910000000    -0.19884    
N15      N      0.823090000000     0.263840000000     0.397730000000    -0.198674   
N16      N      0.746890000000     0.322180000000     0.167840000000    -0.198468   
N17      N      0.708680000000     0.444810000000     0.972920000000    -0.199321   
N18      N      0.716710000000     0.604640000000     0.952020000000    -0.198919   
N19      N      0.246810000000     0.779560000000     0.550150000000    -0.198532   
N20      N      0.307230000000     0.719340000000     0.791450000000    -0.198549   
N21      N      0.210670000000     0.811100000000     0.291600000000    -0.198772   
N22      N      0.274190000000     0.751570000000     0.052030000000    -0.198676   
N23      N      0.434280000000     0.727730000000     0.980330000000    -0.198753   
N24      N      0.597270000000     0.703840000000     0.995330000000    -0.198964   
N25      N      0.278300000000     0.251500000000     0.565100000000    -0.198615   
N26      N      0.332620000000     0.307250000000     0.820310000000    -0.199016   
N27      N      0.302600000000     0.300430000000     0.083690000000    -0.198699   
N28      N      0.239520000000     0.220130000000     0.300480000000    -0.198428   
N29      N      0.620450000000     0.314990000000     0.000220000000    -0.198607   
N30      N      0.458580000000     0.342030000000     0.975360000000    -0.19883    
N31      N      0.342770000000     0.605880000000     0.994580000000    -0.199128   
N32      N      0.345060000000     0.446270000000     0.999290000000    -0.199049   
O1       O      0.410220000000     0.337220000000     0.015220000000    -0.246131   
O2       O      0.350640000000     0.404490000000     0.941700000000    -0.248162   
O3       O      0.350390000000     0.314570000000     0.049270000000    -0.245616   
O4       O      0.359520000000     0.307790000000     0.902500000000    -0.255555   
O5       O      0.331270000000     0.347640000000     0.881810000000    -0.24637    
O6       O      0.309250000000     0.333980000000     0.010820000000    -0.254633   
O7       O      0.412830000000     0.355300000000     0.931930000000    -0.254607   
O8       O      0.353420000000     0.396600000000     0.029830000000    -0.255812   
O9       O      0.287580000000     0.710880000000     0.995290000000    -0.25356    
O10      O      0.330640000000     0.734590000000     0.872190000000    -0.25015    
O11      O      0.330260000000     0.656380000000     0.014900000000    -0.252377   
O12      O      0.385800000000     0.713150000000     0.012080000000    -0.252541   
O13      O      0.392560000000     0.717840000000     0.923860000000    -0.250499   
O14      O      0.352170000000     0.646540000000     0.936130000000    -0.251243   
O15      O      0.322970000000     0.744780000000     0.014990000000    -0.250261   
O16      O      0.314970000000     0.687140000000     0.865870000000    -0.250084   
O17      O      0.668030000000     0.326440000000     0.960780000000    -0.248074   
O18      O      0.726820000000     0.403970000000     0.024010000000    -0.248623   
O19      O      0.733690000000     0.309090000000     0.944250000000    -0.247104   
O20      O      0.740480000000     0.313830000000     0.074950000000    -0.25361    
O21      O      0.721510000000     0.355980000000     0.109820000000    -0.246084   
O22      O      0.762930000000     0.349360000000     0.956000000000    -0.25501    
O23      O      0.661830000000     0.335060000000     0.048180000000    -0.254701   
O24      O      0.695010000000     0.394160000000     0.956990000000    -0.256847   
O25      O      0.693400000000     0.651720000000     0.936000000000    -0.253876   
O26      O      0.643380000000     0.685070000000     0.030330000000    -0.25039    
O27      O      0.729720000000     0.713580000000     0.917950000000    -0.251626   
O28      O      0.738060000000     0.711900000000     0.063120000000    -0.251269   
O29      O      0.691170000000     0.709750000000     0.095990000000    -0.251707   
O30      O      0.704410000000     0.750400000000     0.958970000000    -0.251503   
O31      O      0.721080000000     0.646420000000     0.009970000000    -0.252663   
O32      O      0.645460000000     0.716430000000     0.960710000000    -0.251074   
O33      O      0.845680000000     0.151870000000     0.541300000000    -0.246796   
O34      O      0.919690000000     0.218320000000     0.484420000000    -0.24844    
O35      O      0.836370000000     0.210670000000     0.599660000000    -0.246356   
O36      O      0.826800000000     0.241530000000     0.483810000000    -0.255032   
O37      O      0.860480000000     0.228320000000     0.421300000000    -0.245986   
O38      O      0.877980000000     0.238570000000     0.590140000000    -0.255189   
O39      O      0.844860000000     0.161440000000     0.453570000000    -0.254509   
O40      O      0.915750000000     0.175900000000     0.531210000000    -0.255512   
O41      O      0.820680000000     0.822110000000     0.575820000000    -0.250636   
O42      O      0.792880000000     0.841460000000     0.453620000000    -0.253514   
O43      O      0.886460000000     0.838560000000     0.550970000000    -0.252359   
O44      O      0.846930000000     0.914470000000     0.527860000000    -0.251001   
O45      O      0.824980000000     0.904870000000     0.449220000000    -0.253243   
O46      O      0.893790000000     0.858450000000     0.469960000000    -0.251195   
O47      O      0.809420000000     0.870240000000     0.590480000000    -0.250723   
O48      O      0.836910000000     0.822440000000     0.425940000000    -0.251043   
O49      O      0.178440000000     0.817510000000     0.366960000000    -0.251105   
O50      O      0.237200000000     0.827820000000     0.514930000000    -0.249163   
O51      O      0.136490000000     0.854010000000     0.442440000000    -0.25112    
O52      O      0.204140000000     0.896040000000     0.424490000000    -0.250346   
O53      O      0.206490000000     0.887880000000     0.512640000000    -0.250928   
O54      O      0.148560000000     0.829600000000     0.517420000000    -0.253021   
O55      O      0.225670000000     0.834880000000     0.372050000000    -0.25144    
O56      O      0.205050000000     0.791060000000     0.494120000000    -0.253015   
O57      O      0.205000000000     0.209070000000     0.370830000000    -0.247214   
O58      O      0.231650000000     0.241220000000     0.522680000000    -0.254818   
O59      O      0.215420000000     0.140520000000     0.432720000000    -0.255299   
O60      O      0.167570000000     0.220150000000     0.465600000000    -0.245688   
O61      O      0.174150000000     0.184780000000     0.527760000000    -0.255731   
O62      O      0.235740000000     0.146700000000     0.513800000000    -0.250151   
O63      O      0.254410000000     0.206160000000     0.387880000000    -0.253359   
O64      O      0.268700000000     0.207690000000     0.513720000000    -0.248907   


