data_structure

_audit_creation_method RASPA-1.0
_audit_creation_date 2023-5-22
_audit_author_name 'Poobodin Mano'

_cell_length_a    35.3609
_cell_length_b    34.7204
_cell_length_c    34.1521
_cell_angle_alpha 90
_cell_angle_beta  90
_cell_angle_gamma 90
_cell_volume      41930.1

_symmetry_cell_setting          triclinic
_symmetry_space_group_name_Hall 'P 1'
_symmetry_space_group_name_H-M  'P 1'
_symmetry_Int_Tables_number     1

_symmetry_equiv_pos_as_xyz 'x,y,z'

loop_
_atom_site_label
_atom_site_type_symbol
_atom_site_fract_x
_atom_site_fract_y
_atom_site_fract_z
_atom_site_charge
C1       C      0.917120000000     0.386240000000     0.928490000000     0.35521    
C2       C      0.875210000000     0.300840000000     0.830540000000     0.351999   
C3       C      0.789580000000     0.330190000000     0.924160000000     0.355457   
C4       C      0.835400000000     0.434060000000     0.844000000000     0.353386   
C5       C      0.046940000000     0.662730000000     0.146580000000     0.356685   
C6       C      0.160680000000     0.589520000000     0.167310000000     0.355297   
C7       C      0.074640000000     0.543840000000     0.080380000000     0.355749   
C8       C      0.136530000000     0.661630000000     0.051000000000     0.354316   
C9       C      0.418970000000     0.816500000000     0.842870000000     0.35346    
C10      C      0.322970000000     0.925190000000     0.848600000000     0.353519   
C11      C      0.307630000000     0.812590000000     0.909120000000     0.353478   
C12      C      0.414170000000     0.903290000000     0.940940000000     0.352882   
C13      C      0.631110000000     0.188610000000     0.090590000000     0.355038   
C14      C      0.557740000000     0.076170000000     0.107210000000     0.356845   
C15      C      0.662980000000     0.101640000000     0.189110000000     0.356409   
C16      C      0.552760000000     0.174830000000     0.202020000000     0.354814   
C17      C      0.316620000000     0.447030000000     0.342600000000     0.355449   
C18      C      0.379950000000     0.327410000000     0.348600000000     0.35695    
C19      C      0.415410000000     0.426130000000     0.433700000000     0.356035   
C20      C      0.299060000000     0.366410000000     0.452230000000     0.354745   
C21      C      0.691180000000     0.595240000000     0.686030000000     0.353048   
C22      C      0.580370000000     0.661200000000     0.675580000000     0.354218   
C23      C      0.686580000000     0.669080000000     0.576550000000     0.354096   
C24      C      0.596370000000     0.574010000000     0.580390000000     0.352602   
C25      C      0.944380000000     0.925910000000     0.409320000000     0.355221   
C26      C      0.838560000000     0.945350000000     0.332540000000     0.355209   
C27      C      0.916040000000     0.841790000000     0.301810000000     0.354111   
C28      C      0.848300000000     0.834170000000     0.418310000000     0.35565    
C29      C      0.048300000000     0.171790000000     0.672860000000     0.353395   
C30      C      0.157670000000     0.087820000000     0.693890000000     0.353607   
C31      C      0.091350000000     0.075300000000     0.584640000000     0.353369   
C32      C      0.154760000000     0.198280000000     0.609440000000     0.354024   
C33      C      0.028580000000     0.019080000000     0.442680000000    -0.0401407  
C34      C      0.007000000000     0.956990000000     0.411340000000    -0.0241822  
C35      C      0.077220000000     0.019710000000     0.492960000000     0.0212709  
C36      C      0.031280000000     0.978830000000     0.440000000000     0.0210203  
C37      C      0.101210000000     0.041680000000     0.521740000000    -0.0242428  
C38      C      0.056620000000     0.959090000000     0.464480000000    -0.0404824  
C39      C      0.079340000000     0.979380000000     0.490870000000    -0.0410769  
C40      C      0.051320000000     0.039360000000     0.469050000000    -0.0394014  
C41      C      0.819150000000     0.731740000000     0.506230000000    -0.0413439  
C42      C      0.843460000000     0.769740000000     0.448240000000    -0.0244079  
C43      C      0.759510000000     0.697080000000     0.502990000000     0.0205251  
C44      C      0.813670000000     0.745560000000     0.468010000000     0.0211922  
C45      C      0.731370000000     0.669970000000     0.521350000000    -0.0237654  
C46      C      0.780520000000     0.735640000000     0.447740000000    -0.0397209  
C47      C      0.753550000000     0.711720000000     0.465160000000    -0.0406062  
C48      C      0.792240000000     0.707680000000     0.523590000000    -0.0394457  
C49      C      0.222050000000     0.343750000000     0.562820000000    -0.0416199  
C50      C      0.277610000000     0.364460000000     0.521130000000    -0.0244841  
C51      C      0.220680000000     0.280860000000     0.594080000000     0.0203046  
C52      C      0.257580000000     0.335420000000     0.546520000000     0.0212016  
C53      C      0.200400000000     0.251260000000     0.618570000000    -0.0234665  
C54      C      0.274290000000     0.299440000000     0.553780000000    -0.0395877  
C55      C      0.255890000000     0.272290000000     0.577230000000    -0.039849   
C56      C      0.203700000000     0.316620000000     0.586370000000    -0.0402956  
C57      C      0.529920000000     0.463810000000     0.546490000000    -0.0408027  
C58      C      0.585770000000     0.508360000000     0.555490000000    -0.0247182  
C59      C      0.508370000000     0.445110000000     0.481660000000     0.0200007  
C60      C      0.558190000000     0.486990000000     0.529820000000     0.0212393  
C61      C      0.481560000000     0.422700000000     0.456080000000    -0.0232511  
C62      C      0.560920000000     0.489640000000     0.488900000000    -0.0409356  
C63      C      0.536060000000     0.469000000000     0.464970000000    -0.0404432  
C64      C      0.505150000000     0.443070000000     0.522570000000    -0.0398211  
C65      C      0.804790000000     0.049780000000     0.254890000000    -0.0402916  
C66      C      0.828230000000     0.013180000000     0.314140000000    -0.0241229  
C67      C      0.744760000000     0.083850000000     0.255910000000     0.0207226  
C68      C      0.798940000000     0.037340000000     0.293540000000     0.0209168  
C69      C      0.715810000000     0.108650000000     0.235620000000    -0.0235915  
C70      C      0.765520000000     0.047830000000     0.313010000000    -0.0405486  
C71      C      0.738530000000     0.070750000000     0.294260000000    -0.0400725  
C72      C      0.777880000000     0.072830000000     0.236200000000    -0.040365   
C73      C      0.497430000000     0.226100000000     0.315100000000    -0.0409338  
C74      C      0.521220000000     0.176950000000     0.266350000000    -0.0242519  
C75      C      0.430180000000     0.237910000000     0.323680000000     0.0215555  
C76      C      0.489620000000     0.198850000000     0.285830000000     0.0207252  
C77      C      0.398570000000     0.258850000000     0.344160000000    -0.0241949  
C78      C      0.451930000000     0.191870000000     0.275030000000    -0.0396773  
C79      C      0.422410000000     0.211370000000     0.293710000000    -0.0417557  
C80      C      0.467910000000     0.245550000000     0.333830000000    -0.0391736  
C81      C      0.191890000000     0.993570000000     0.787210000000    -0.04106    
C82      C      0.163270000000     0.053190000000     0.756610000000    -0.0246093  
C83      C      0.248060000000     0.997430000000     0.828060000000     0.0206483  
C84      C      0.193270000000     0.033490000000     0.780740000000     0.0210605  
C85      C      0.276610000000     0.978020000000     0.854190000000    -0.0240056  
C86      C      0.222560000000     0.055140000000     0.797640000000    -0.0401688  
C87      C      0.249850000000     0.037240000000     0.821000000000    -0.0410853  
C88      C      0.219070000000     0.975700000000     0.810720000000    -0.0392952  
C89      C      0.536890000000     0.709090000000     0.781300000000    -0.0395579  
C90      C      0.534070000000     0.657400000000     0.729530000000    -0.0243045  
C91      C      0.479920000000     0.734490000000     0.811590000000     0.0204625  
C92      C      0.514990000000     0.685150000000     0.757130000000     0.0209813  
C93      C      0.460960000000     0.759870000000     0.841500000000    -0.0236238  
C94      C      0.475390000000     0.686640000000     0.759830000000    -0.0414079  
C95      C      0.457990000000     0.711160000000     0.786860000000    -0.0394898  
C96      C      0.519480000000     0.733710000000     0.808210000000    -0.0408096  
C97      C      0.452210000000     0.008430000000     0.060320000000    -0.04067    
C98      C      0.503490000000     0.031710000000     0.106170000000    -0.02408    
C99      C      0.453310000000     0.943660000000     0.033320000000     0.021153   
C100     C      0.486450000000     0.001470000000     0.079890000000     0.0208439  
C101     C      0.434780000000     0.912560000000     0.009280000000    -0.0245769  
C102     C      0.504320000000     0.965620000000     0.075470000000    -0.0401768  
C103     C      0.487960000000     0.936970000000     0.052230000000    -0.0411411  
C104     C      0.435750000000     0.979710000000     0.037230000000    -0.0395724  
C105     C      0.958980000000     0.797020000000     0.184660000000    -0.0408681  
C106     C      0.909900000000     0.815490000000     0.234950000000    -0.0241     
C107     C      0.967020000000     0.730610000000     0.163770000000     0.0204919  
C108     C      0.929420000000     0.785990000000     0.209700000000     0.0208151  
C109     C      0.988280000000     0.700780000000     0.140510000000    -0.0233248  
C110     C      0.919030000000     0.747020000000     0.211890000000    -0.0399496  
C111     C      0.937770000000     0.719510000000     0.189160000000    -0.0406124  
C112     C      0.977740000000     0.769500000000     0.161950000000    -0.0397755  
C113     C      0.166520000000     0.733930000000     0.943270000000    -0.0415683  
C114     C      0.148800000000     0.673980000000     0.980920000000    -0.0240959  
C115     C      0.228790000000     0.741330000000     0.914120000000     0.0196401  
C116     C      0.176460000000     0.697230000000     0.957110000000     0.0206774  
C117     C      0.257500000000     0.765750000000     0.893040000000    -0.0230706  
C118     C      0.212840000000     0.682860000000     0.949570000000    -0.0401429  
C119     C      0.238860000000     0.704790000000     0.928300000000    -0.0402358  
C120     C      0.192550000000     0.755880000000     0.922040000000    -0.0401766  
C121     C      0.290650000000     0.511970000000     0.232030000000    -0.0403064  
C122     C      0.321700000000     0.502470000000     0.297860000000    -0.0241957  
C123     C      0.251240000000     0.567770000000     0.218600000000     0.0207365  
C124     C      0.296790000000     0.525050000000     0.270400000000     0.0212039  
C125     C      0.226560000000     0.590350000000     0.190950000000    -0.0237195  
C126     C      0.279360000000     0.559220000000     0.282950000000    -0.0406138  
C127     C      0.256650000000     0.580380000000     0.257250000000    -0.0403911  
C128     C      0.267940000000     0.533120000000     0.206350000000    -0.0396526  
C129     C      0.923650000000     0.271340000000     0.718920000000    -0.0395597  
C130     C      0.869820000000     0.266520000000     0.767160000000    -0.0251926  
C131     C      0.952940000000     0.214250000000     0.691100000000     0.0204337  
C132     C      0.898510000000     0.248230000000     0.740370000000     0.0224357  
C133     C      0.983060000000     0.196060000000     0.665990000000    -0.0236401  
C134     C      0.901080000000     0.207980000000     0.737360000000    -0.041779   
C135     C      0.928180000000     0.191110000000     0.712990000000    -0.0395525  
C136     C      0.950740000000     0.254470000000     0.694540000000    -0.0399958  
C137     C      0.657980000000     0.295660000000     0.020040000000    -0.0407545  
C138     C      0.622190000000     0.234810000000     0.036390000000    -0.0240836  
C139     C      0.693680000000     0.301780000000     0.959550000000     0.0201576  
C140     C      0.646420000000     0.258480000000     0.009190000000     0.0210473  
C141     C      0.720690000000     0.324030000000     0.934020000000    -0.0232858  
C142     C      0.658840000000     0.243010000000     0.973460000000    -0.0403827  
C143     C      0.682390000000     0.264470000000     0.948860000000    -0.0399122  
C144     C      0.681550000000     0.317110000000     0.995450000000    -0.0400561  
C145     C      0.737310000000     0.557020000000     0.798070000000    -0.0401298  
C146     C      0.734530000000     0.604180000000     0.742030000000    -0.0239408  
C147     C      0.796950000000     0.530730000000     0.821190000000     0.0211487  
C148     C      0.756520000000     0.579360000000     0.770180000000     0.0203255  
C149     C      0.818420000000     0.503150000000     0.846970000000    -0.023985   
C150     C      0.796120000000     0.577260000000     0.767990000000    -0.0406666  
C151     C      0.816180000000     0.553100000000     0.793320000000    -0.0413045  
C152     C      0.757350000000     0.532700000000     0.823220000000    -0.0396174  
C153     C      0.051010000000     0.422830000000     0.019680000000    -0.0416346  
C154     C      0.083100000000     0.484450000000     0.041270000000    -0.0245925  
C155     C      0.011370000000     0.421140000000     0.961560000000     0.020595   
C156     C      0.058070000000     0.462190000000     0.013680000000     0.0214565  
C157     C      0.985480000000     0.399440000000     0.934380000000    -0.0235726  
C158     C      0.041310000000     0.480940000000     0.981650000000    -0.0395434  
C159     C      0.017960000000     0.460620000000     0.955910000000    -0.0397154  
C160     C      0.027770000000     0.402470000000     0.993830000000    -0.0404412  
Cd1      Cd     0.853190000000     0.362390000000     0.882370000000     0.508284   
Cd2      Cd     0.104310000000     0.614560000000     0.111910000000     0.508755   
Cd3      Cd     0.366460000000     0.864720000000     0.884870000000     0.509059   
Cd4      Cd     0.600670000000     0.135130000000     0.146860000000     0.508254   
Cd5      Cd     0.352250000000     0.391740000000     0.393700000000     0.508277   
Cd6      Cd     0.638910000000     0.625850000000     0.629270000000     0.508676   
Cd7      Cd     0.886290000000     0.886590000000     0.365850000000     0.508119   
Cd8      Cd     0.113380000000     0.133440000000     0.640290000000     0.508414   
H1       H      0.057200000000     0.030910000000     0.565060000000     0.106976   
H2       H      0.000190000000     0.975270000000     0.385510000000     0.0529229  
H3       H      0.022370000000     0.931210000000     0.400320000000     0.0519276  
H4       H      0.048800000000     0.070410000000     0.470770000000     0.0488729  
H5       H      0.008880000000     0.034770000000     0.424370000000     0.0469741  
H6       H      0.127660000000     0.025570000000     0.528230000000     0.0487936  
H7       H      0.058780000000     0.928000000000     0.463140000000     0.0464529  
H8       H      0.098640000000     0.963650000000     0.509590000000     0.0452923  
H9       H      0.110190000000     0.069620000000     0.508740000000     0.0556019  
H10      H      0.967340000000     0.949260000000     0.459750000000     0.107298   
H11      H      0.710240000000     0.719210000000     0.554580000000     0.108083   
H12      H      0.870140000000     0.770200000000     0.465490000000     0.0497308  
H13      H      0.850230000000     0.756900000000     0.419220000000     0.0539707  
H14      H      0.797150000000     0.696910000000     0.552930000000     0.0474284  
H15      H      0.844440000000     0.739130000000     0.522450000000     0.0450821  
H16      H      0.711780000000     0.658020000000     0.498940000000     0.0495675  
H17      H      0.775770000000     0.746130000000     0.418270000000     0.0488543  
H18      H      0.728320000000     0.704170000000     0.448890000000     0.0455718  
H19      H      0.746560000000     0.644800000000     0.533990000000     0.0527091  
H20      H      0.806990000000     0.819430000000     0.458590000000     0.107931   
H21      H      0.169400000000     0.236370000000     0.565430000000     0.107424   
H22      H      0.265410000000     0.393710000000     0.525170000000     0.0482868  
H23      H      0.307960000000     0.365870000000     0.529660000000     0.0543402  
H24      H      0.176220000000     0.323470000000     0.598550000000     0.045478   
H25      H      0.208490000000     0.371180000000     0.557280000000     0.0447495  
H26      H      0.221020000000     0.231690000000     0.633080000000     0.0527217  
H27      H      0.301520000000     0.292380000000     0.541140000000     0.0490262  
H28      H      0.269150000000     0.244600000000     0.582270000000     0.0472282  
H29      H      0.184550000000     0.265600000000     0.642640000000     0.0496843  
H30      H      0.251820000000     0.336330000000     0.470760000000     0.107805   
H31      H      0.441590000000     0.469880000000     0.464670000000     0.107489   
H32      H      0.586110000000     0.496260000000     0.585670000000     0.0536262  
H33      H      0.614840000000     0.505150000000     0.543470000000     0.052145   
H34      H      0.483580000000     0.425240000000     0.535940000000     0.0468693  
H35      H      0.527150000000     0.461590000000     0.577990000000     0.045922   
H36      H      0.493760000000     0.418330000000     0.426370000000     0.0496559  
H37      H      0.582400000000     0.507590000000     0.475530000000     0.0466352  
H38      H      0.538620000000     0.471430000000     0.433460000000     0.0453669  
H39      H      0.477220000000     0.393370000000     0.468410000000     0.0513514  
H40      H      0.554800000000     0.560650000000     0.539900000000     0.106648   
H41      H      0.698280000000     0.056600000000     0.204620000000     0.107423   
H42      H      0.855980000000     0.014650000000     0.298850000000     0.0518906  
H43      H      0.832650000000     0.024390000000     0.344310000000     0.0511127  
H44      H      0.782910000000     0.082230000000     0.206410000000     0.0473236  
H45      H      0.830240000000     0.041770000000     0.239230000000     0.0457559  
H46      H      0.697520000000     0.123620000000     0.257340000000     0.0520387  
H47      H      0.760400000000     0.038280000000     0.342750000000     0.0473849  
H48      H      0.712910000000     0.078480000000     0.309780000000     0.0460642  
H49      H      0.730230000000     0.131800000000     0.218760000000     0.0519634  
H50      H      0.789200000000     0.964920000000     0.306800000000     0.107632   
H51      H      0.399290000000     0.301680000000     0.297710000000     0.106735   
H52      H      0.547290000000     0.177550000000     0.284570000000     0.0495118  
H53      H      0.512930000000     0.146210000000     0.262850000000     0.0538142  
H54      H      0.474460000000     0.266380000000     0.356450000000     0.04907    
H55      H      0.526330000000     0.232170000000     0.323610000000     0.0452671  
H56      H      0.371650000000     0.242570000000     0.341180000000     0.0470634  
H57      H      0.445390000000     0.171190000000     0.252260000000     0.0474206  
H58      H      0.393520000000     0.205530000000     0.285000000000     0.0448328  
H59      H      0.404710000000     0.260500000000     0.376080000000     0.0554045  
H60      H      0.518670000000     0.220040000000     0.219850000000     0.106832   
H61      H      0.304900000000     0.957710000000     0.801330000000     0.107988   
H62      H      0.138880000000     0.033720000000     0.750940000000     0.0511024  
H63      H      0.152180000000     0.078440000000     0.773060000000     0.0539006  
H64      H      0.217360000000     0.944930000000     0.815680000000     0.0481624  
H65      H      0.169610000000     0.976290000000     0.774360000000     0.0451757  
H66      H      0.293780000000     0.999640000000     0.870370000000     0.0483385  
H67      H      0.224120000000     0.085950000000     0.792890000000     0.0479749  
H68      H      0.272100000000     0.054520000000     0.833890000000     0.0448222  
H69      H      0.261510000000     0.960820000000     0.876810000000     0.0535821  
H70      H      0.206430000000     0.059640000000     0.711300000000     0.106892   
H71      H      0.450070000000     0.800550000000     0.794090000000     0.108392   
H72      H      0.555160000000     0.640140000000     0.746170000000     0.0537782  
H73      H      0.513390000000     0.636850000000     0.716670000000     0.0483674  
H74      H      0.536920000000     0.751740000000     0.826750000000     0.0453639  
H75      H      0.567470000000     0.708400000000     0.779550000000     0.0490061  
H76      H      0.439250000000     0.742920000000     0.857640000000     0.0527047  
H77      H      0.457940000000     0.668530000000     0.741380000000     0.0447803  
H78      H      0.427420000000     0.711630000000     0.788830000000     0.0477408  
H79      H      0.481570000000     0.769830000000     0.863930000000     0.0490068  
H80      H      0.544980000000     0.706240000000     0.690990000000     0.108369   
H81      H      0.455630000000     0.942240000000     0.957270000000     0.106842   
H82      H      0.482880000000     0.055100000000     0.112580000000     0.05114    
H83      H      0.511270000000     0.018400000000     0.134690000000     0.0521946  
H84      H      0.409130000000     0.985470000000     0.022660000000     0.0488673  
H85      H      0.438000000000     0.035920000000     0.063200000000     0.0454489  
H86      H      0.448620000000     0.884220000000     0.014310000000     0.0494588  
H87      H      0.530810000000     0.959780000000     0.090270000000     0.0476457  
H88      H      0.502130000000     0.909450000000     0.049400000000     0.0449491  
H89      H      0.404870000000     0.909130000000     0.018810000000     0.0556456  
H90      H      0.547020000000     0.038800000000     0.061300000000     0.107154   
H91      H      0.022630000000     0.692120000000     0.192850000000     0.10796    
H92      H      0.908790000000     0.843760000000     0.219680000000     0.0499007  
H93      H      0.880230000000     0.806640000000     0.241080000000     0.0528446  
H94      H      0.000730000000     0.778500000000     0.143090000000     0.046716   
H95      H      0.967730000000     0.826870000000     0.182960000000     0.0460585  
H96      H      0.969180000000     0.676620000000     0.132350000000     0.0504334  
H97      H      0.896630000000     0.737880000000     0.231430000000     0.0466107  
H98      H      0.929590000000     0.689530000000     0.191520000000     0.0464117  
H99      H      0.998510000000     0.713290000000     0.112430000000     0.0521048  
H100     H      0.956660000000     0.807430000000     0.275870000000     0.107567   
H101     H      0.274880000000     0.785470000000     0.950990000000     0.107558   
H102     H      0.119360000000     0.680020000000     0.971240000000     0.0480628  
H103     H      0.153960000000     0.642610000000     0.976790000000     0.0530822  
H104     H      0.184520000000     0.784330000000     0.912020000000     0.0450437  
H105     H      0.138740000000     0.745700000000     0.949240000000     0.044811   
H106     H      0.276570000000     0.747330000000     0.875120000000     0.0500612  
H107     H      0.221210000000     0.654810000000     0.960440000000     0.0468238  
H108     H      0.266940000000     0.693410000000     0.923150000000     0.0459507  
H109     H      0.243290000000     0.785560000000     0.872080000000     0.0499232  
H110     H      0.166100000000     0.709010000000     0.030830000000     0.106982   
H111     H      0.178740000000     0.559150000000     0.215990000000     0.107856   
H112     H      0.344990000000     0.488320000000     0.281310000000     0.0534864  
H113     H      0.335020000000     0.521900000000     0.319790000000     0.0514206  
H114     H      0.263520000000     0.522560000000     0.176850000000     0.0469573  
H115     H      0.303500000000     0.485440000000     0.221970000000     0.0475022  
H116     H      0.228010000000     0.621610000000     0.197890000000     0.0508875  
H117     H      0.283390000000     0.569530000000     0.312590000000     0.0464878  
H118     H      0.243420000000     0.606670000000     0.267450000000     0.0465455  
H119     H      0.237060000000     0.587380000000     0.160380000000     0.0529124  
H120     H      0.270420000000     0.471900000000     0.315310000000     0.107742   
H121     H      0.019360000000     0.199030000000     0.717600000000     0.1075     
H122     H      0.860200000000     0.294520000000     0.754790000000     0.0568206  
H123     H      0.844640000000     0.247550000000     0.770040000000     0.0468894  
H124     H      0.970080000000     0.272780000000     0.678470000000     0.0461705  
H125     H      0.922430000000     0.302430000000     0.721250000000     0.0492409  
H126     H      0.972870000000     0.168220000000     0.653760000000     0.0527711  
H127     H      0.882270000000     0.189640000000     0.754070000000     0.0450813  
H128     H      0.929940000000     0.160010000000     0.711300000000     0.0469342  
H129     H      0.989460000000     0.214670000000     0.640310000000     0.0504382  
H130     H      0.906590000000     0.252610000000     0.816200000000     0.106897   
H131     H      0.765730000000     0.295830000000     0.966980000000     0.107932   
H132     H      0.602510000000     0.253730000000     0.053010000000     0.0519097  
H133     H      0.604650000000     0.213980000000     0.019550000000     0.0527474  
H134     H      0.690560000000     0.345550000000     0.004560000000     0.0463431  
H135     H      0.649100000000     0.307880000000     0.047740000000     0.0466959  
H136     H      0.715470000000     0.317470000000     0.902590000000     0.0510666  
H137     H      0.650650000000     0.214170000000     0.964820000000     0.0470599  
H138     H      0.692060000000     0.251870000000     0.921630000000     0.046545   
H139     H      0.715980000000     0.355550000000     0.937340000000     0.0506694  
H140     H      0.675180000000     0.217910000000     0.064310000000     0.107511   
H141     H      0.828840000000     0.468370000000     0.795020000000     0.106445   
H142     H      0.712940000000     0.621040000000     0.758380000000     0.0514775  
H143     H      0.753240000000     0.625160000000     0.726840000000     0.0497887  
H144     H      0.741930000000     0.515240000000     0.844110000000     0.0471543  
H145     H      0.706740000000     0.558020000000     0.799940000000     0.0473683  
H146     H      0.845290000000     0.516740000000     0.856720000000     0.0466201  
H147     H      0.811470000000     0.593980000000     0.746440000000     0.0442742  
H148     H      0.846690000000     0.551510000000     0.790910000000     0.0444328  
H149     H      0.802080000000     0.496630000000     0.874030000000     0.0544636  
H150     H      0.720080000000     0.550490000000     0.712330000000     0.107515   
H151     H      0.942510000000     0.404000000000     0.979960000000     0.107732   
H152     H      0.098850000000     0.464720000000     0.061070000000     0.04715    
H153     H      0.104290000000     0.500930000000     0.023950000000     0.0553463  
H154     H      0.022490000000     0.372170000000     0.999020000000     0.0461702  
H155     H      0.063410000000     0.407880000000     0.044380000000     0.0446124  
H156     H      0.985060000000     0.413120000000     0.904910000000     0.0526863  
H157     H      0.046210000000     0.511360000000     0.976730000000     0.0497827  
H158     H      0.005060000000     0.475690000000     0.931560000000     0.0462858  
H159     H      0.996250000000     0.369670000000     0.929900000000     0.0500316  
H160     H      0.032320000000     0.503620000000     0.071540000000     0.107418   
N1       N      0.080610000000     0.048140000000     0.558380000000    -0.198391   
N2       N      0.971720000000     0.944370000000     0.429850000000    -0.198707   
N3       N      0.709170000000     0.689210000000     0.551860000000    -0.199073   
N4       N      0.830350000000     0.809430000000     0.442760000000    -0.199068   
N5       N      0.174060000000     0.228720000000     0.594670000000    -0.198915   
N6       N      0.274320000000     0.353820000000     0.479730000000    -0.198651   
N7       N      0.445090000000     0.442420000000     0.452560000000    -0.199234   
N8       N      0.576590000000     0.549490000000     0.557260000000    -0.198413   
N9       N      0.692280000000     0.085800000000     0.209010000000    -0.198699   
N10      N      0.816060000000     0.972910000000     0.316800000000    -0.198815   
N11      N      0.393390000000     0.297350000000     0.327410000000    -0.198896   
N12      N      0.529910000000     0.193270000000     0.227810000000    -0.19897    
N13      N      0.302110000000     0.953320000000     0.831500000000    -0.198826   
N14      N      0.178630000000     0.066540000000     0.719120000000    -0.198802   
N15      N      0.443410000000     0.793550000000     0.823080000000    -0.198797   
N16      N      0.553080000000     0.678000000000     0.697650000000    -0.198738   
N17      N      0.436410000000     0.921600000000     0.967390000000    -0.198625   
N18      N      0.537580000000     0.048440000000     0.088640000000    -0.199267   
N19      N      0.020250000000     0.685600000000     0.163030000000    -0.199007   
N20      N      0.930200000000     0.820420000000     0.272020000000    -0.198867   
N21      N      0.279990000000     0.788180000000     0.920920000000    -0.199116   
N22      N      0.152010000000     0.683790000000     0.022530000000    -0.198957   
N23      N      0.187140000000     0.577560000000     0.193330000000    -0.198696   
N24      N      0.299830000000     0.472990000000     0.318590000000    -0.198764   
N25      N      0.017760000000     0.189650000000     0.688520000000    -0.198719   
N26      N      0.886160000000     0.272070000000     0.806200000000    -0.197978   
N27      N      0.759980000000     0.314820000000     0.943940000000    -0.199298   
N28      N      0.645870000000     0.213650000000     0.064270000000    -0.19859    
N29      N      0.827270000000     0.467660000000     0.825610000000    -0.198494   
N30      N      0.715390000000     0.580250000000     0.712750000000    -0.199125   
N31      N      0.947090000000     0.397510000000     0.950410000000    -0.198638   
N32      N      0.060410000000     0.510790000000     0.065210000000    -0.198873   
O1       O      0.890000000000     0.304820000000     0.864020000000    -0.249498   
O2       O      0.834580000000     0.430890000000     0.880900000000    -0.253304   
O3       O      0.920470000000     0.377670000000     0.892620000000    -0.252455   
O4       O      0.823260000000     0.321830000000     0.933050000000    -0.251513   
O5       O      0.785020000000     0.353430000000     0.896040000000    -0.255269   
O6       O      0.884350000000     0.383800000000     0.943130000000    -0.248721   
O7       O      0.850030000000     0.325000000000     0.821030000000    -0.248035   
O8       O      0.844320000000     0.404270000000     0.824810000000    -0.248481   
O9       O      0.168700000000     0.612000000000     0.139360000000    -0.251144   
O10      O      0.118610000000     0.631000000000     0.043280000000    -0.252423   
O11      O      0.074320000000     0.649860000000     0.166450000000    -0.251816   
O12      O      0.054340000000     0.566160000000     0.100740000000    -0.251409   
O13      O      0.108600000000     0.553950000000     0.074790000000    -0.252711   
O14      O      0.045810000000     0.653300000000     0.110820000000    -0.253258   
O15      O      0.126660000000     0.578600000000     0.169900000000    -0.250921   
O16      O      0.139470000000     0.670700000000     0.086740000000    -0.250585   
O17      O      0.344810000000     0.903980000000     0.828700000000    -0.24546    
O18      O      0.390740000000     0.877620000000     0.951070000000    -0.246607   
O19      O      0.403880000000     0.845510000000     0.826810000000    -0.245305   
O20      O      0.315510000000     0.817470000000     0.873300000000    -0.256146   
O21      O      0.326790000000     0.831630000000     0.933650000000    -0.24645    
O22      O      0.410040000000     0.809930000000     0.878120000000    -0.256434   
O23      O      0.321460000000     0.918730000000     0.885020000000    -0.256679   
O24      O      0.415860000000     0.911210000000     0.904840000000    -0.254545   
O25      O      0.587470000000     0.090100000000     0.092310000000    -0.252058   
O26      O      0.567630000000     0.142610000000     0.209860000000    -0.252001   
O27      O      0.595960000000     0.181920000000     0.092550000000    -0.248285   
O28      O      0.643240000000     0.081850000000     0.165650000000    -0.252635   
O29      O      0.654080000000     0.136750000000     0.193010000000    -0.249789   
O30      O      0.652090000000     0.170780000000     0.114460000000    -0.252203   
O31      O      0.547870000000     0.089320000000     0.140200000000    -0.254839   
O32      O      0.560080000000     0.189070000000     0.168800000000    -0.251888   
O33      O      0.375340000000     0.360240000000     0.333310000000    -0.253981   
O34      O      0.326470000000     0.388310000000     0.460680000000    -0.253667   
O35      O      0.297510000000     0.421860000000     0.360600000000    -0.251483   
O36      O      0.417700000000     0.393140000000     0.418110000000    -0.255201   
O37      O      0.384000000000     0.443360000000     0.430920000000    -0.248844   
O38      O      0.351990000000     0.446740000000     0.348100000000    -0.250701   
O39      O      0.371550000000     0.324170000000     0.384450000000    -0.252658   
O40      O      0.295840000000     0.356500000000     0.416750000000    -0.247679   
O41      O      0.591120000000     0.626930000000     0.681570000000    -0.256534   
O42      O      0.623010000000     0.562410000000     0.602130000000    -0.245214   
O43      O      0.684330000000     0.630970000000     0.684130000000    -0.255416   
O44      O      0.667390000000     0.685720000000     0.602800000000    -0.246983   
O45      O      0.683680000000     0.632840000000     0.574560000000    -0.257106   
O46      O      0.674190000000     0.573840000000     0.661830000000    -0.246586   
O47      O      0.596400000000     0.679260000000     0.648010000000    -0.245363   
O48      O      0.589090000000     0.609680000000     0.581100000000    -0.253641   
O49      O      0.871400000000     0.952840000000     0.345150000000    -0.254905   
O50      O      0.877020000000     0.824180000000     0.398710000000    -0.254996   
O51      O      0.947780000000     0.918960000000     0.373100000000    -0.248654   
O52      O      0.884410000000     0.858680000000     0.299360000000    -0.253204   
O53      O      0.933980000000     0.845650000000     0.333580000000    -0.248115   
O54      O      0.914160000000     0.914790000000     0.425630000000    -0.252788   
O55      O      0.827590000000     0.910790000000     0.335290000000    -0.247609   
O56      O      0.837000000000     0.868450000000     0.413970000000    -0.24931    
O57      O      0.123750000000     0.096900000000     0.701200000000    -0.249716   
O58      O      0.131730000000     0.179460000000     0.588590000000    -0.250365   
O59      O      0.077960000000     0.166310000000     0.692770000000    -0.249582   
O60      O      0.073250000000     0.080360000000     0.616160000000    -0.25179    
O61      O      0.119700000000     0.096830000000     0.578860000000    -0.248631   
O62      O      0.048580000000     0.159760000000     0.637880000000    -0.251596   
O63      O      0.171290000000     0.099650000000     0.661830000000    -0.252626   
O64      O      0.158800000000     0.187320000000     0.644530000000    -0.252946   


