data_structure

_audit_creation_method RASPA-1.0
_audit_creation_date 2023-5-22
_audit_author_name 'Poobodin Mano'

_cell_length_a    35.8781
_cell_length_b    34.0824
_cell_length_c    35.8781
_cell_angle_alpha 90
_cell_angle_beta  90
_cell_angle_gamma 90
_cell_volume      43872.2

_symmetry_cell_setting          triclinic
_symmetry_space_group_name_Hall 'P 1'
_symmetry_space_group_name_H-M  'P 1'
_symmetry_Int_Tables_number     1

_symmetry_equiv_pos_as_xyz 'x,y,z'

loop_
_atom_site_label
_atom_site_type_symbol
_atom_site_fract_x
_atom_site_fract_y
_atom_site_fract_z
_atom_site_charge
C1       C      0.896250000000     0.421490000000     0.896590000000     0.344193   
C2       C      0.802050000000     0.421380000000     0.802230000000     0.344041   
C3       C      0.896370000000     0.327120000000     0.802350000000     0.344009   
C4       C      0.802020000000     0.327100000000     0.896560000000     0.344181   
C5       C      0.052040000000     0.577240000000     0.052170000000     0.344153   
C6       C      0.146400000000     0.671450000000     0.052090000000     0.344033   
C7       C      0.052120000000     0.671520000000     0.146450000000     0.344099   
C8       C      0.146390000000     0.577200000000     0.146430000000     0.344007   
C9       C      0.302090000000     0.826970000000     0.896220000000     0.344011   
C10      C      0.396410000000     0.826970000000     0.801920000000     0.343955   
C11      C      0.302150000000     0.921320000000     0.801970000000     0.34406    
C12      C      0.396440000000     0.921200000000     0.896260000000     0.344024   
C13      C      0.646310000000     0.171260000000     0.052140000000     0.344086   
C14      C      0.552060000000     0.076900000000     0.052050000000     0.344129   
C15      C      0.646270000000     0.076950000000     0.146430000000     0.343919   
C16      C      0.551970000000     0.171250000000     0.146330000000     0.344128   
C17      C      0.396400000000     0.421290000000     0.396320000000     0.343965   
C18      C      0.302040000000     0.327090000000     0.396360000000     0.344166   
C19      C      0.302060000000     0.421370000000     0.302050000000     0.344067   
C20      C      0.396310000000     0.327030000000     0.302020000000     0.344039   
C21      C      0.646430000000     0.576980000000     0.646340000000     0.344132   
C22      C      0.552130000000     0.671270000000     0.646220000000     0.344121   
C23      C      0.646480000000     0.671290000000     0.552040000000     0.344026   
C24      C      0.552240000000     0.576910000000     0.551960000000     0.344143   
C25      C      0.802130000000     0.921460000000     0.302160000000     0.344173   
C26      C      0.896390000000     0.921550000000     0.396510000000     0.344084   
C27      C      0.802150000000     0.827170000000     0.396460000000     0.34408    
C28      C      0.896470000000     0.827220000000     0.302220000000     0.344127   
C29      C      0.052080000000     0.171490000000     0.646580000000     0.344225   
C30      C      0.052040000000     0.077280000000     0.552230000000     0.3439     
C31      C      0.146380000000     0.171530000000     0.552240000000     0.344142   
C32      C      0.146380000000     0.077200000000     0.646490000000     0.344204   
C33      C      0.020600000000     0.065090000000     0.491390000000    -0.0276962  
C34      C      0.927770000000     0.933790000000     0.457360000000    -0.0275899  
C35      C      0.936100000000     0.980530000000     0.406850000000    -0.0276282  
C36      C      0.957010000000     0.993210000000     0.440420000000     0.0186316  
C37      C      0.952260000000     0.966560000000     0.469220000000     0.0185627  
C38      C      0.969300000000     0.972040000000     0.503990000000    -0.0652566  
C39      C      0.012270000000     0.018340000000     0.541900000000    -0.0274935  
C40      C      0.979070000000     0.026850000000     0.444770000000    -0.0653526  
C41      C      0.991350000000     0.005670000000     0.508340000000     0.0185361  
C42      C      0.996100000000     0.032330000000     0.479530000000     0.0186333  
C43      C      0.741280000000     0.814860000000     0.427800000000    -0.0276634  
C44      C      0.707360000000     0.683600000000     0.520710000000    -0.0277145  
C45      C      0.656770000000     0.730230000000     0.512250000000    -0.0276631  
C46      C      0.690350000000     0.742950000000     0.491380000000     0.0186414  
C47      C      0.719200000000     0.716360000000     0.496200000000     0.0186148  
C48      C      0.753980000000     0.721900000000     0.479210000000    -0.0653049  
C49      C      0.791870000000     0.768240000000     0.436260000000    -0.0275962  
C50      C      0.694660000000     0.776570000000     0.469290000000    -0.0653497  
C51      C      0.758290000000     0.755520000000     0.457130000000     0.0186118  
C52      C      0.729450000000     0.782100000000     0.452310000000     0.0186317  
C53      C      0.241220000000     0.314930000000     0.427850000000    -0.0276423  
C54      C      0.207200000000     0.183700000000     0.520770000000    -0.0276657  
C55      C      0.156710000000     0.230490000000     0.512490000000    -0.0276917  
C56      C      0.190270000000     0.243130000000     0.491530000000     0.0186609  
C57      C      0.219050000000     0.216450000000     0.496250000000     0.018603   
C58      C      0.253800000000     0.221890000000     0.479170000000    -0.0652863  
C59      C      0.291700000000     0.268150000000     0.436130000000    -0.02762    
C60      C      0.194610000000     0.276750000000     0.469460000000    -0.0653406  
C61      C      0.258150000000     0.255510000000     0.457100000000     0.0186048  
C62      C      0.229360000000     0.282190000000     0.452380000000     0.0186198  
C63      C      0.512450000000     0.517980000000     0.541650000000    -0.0275759  
C64      C      0.436260000000     0.480170000000     0.406600000000    -0.0276373  
C65      C      0.427830000000     0.433500000000     0.457160000000    -0.0277055  
C66      C      0.452390000000     0.466220000000     0.468990000000     0.018639   
C67      C      0.457190000000     0.492830000000     0.440170000000     0.0186016  
C68      C      0.479310000000     0.526430000000     0.444490000000    -0.0652885  
C69      C      0.520880000000     0.564650000000     0.491100000000    -0.0276434  
C70      C      0.469420000000     0.471700000000     0.503760000000    -0.065321   
C71      C      0.496340000000     0.531910000000     0.479250000000     0.0186114  
C72      C      0.491540000000     0.505300000000     0.508080000000     0.0186034  
C73      C      0.770790000000     0.933680000000     0.241290000000    -0.0276713  
C74      C      0.677590000000     0.064710000000     0.207310000000    -0.027648   
C75      C      0.686150000000     0.018080000000     0.156740000000    -0.0277066  
C76      C      0.707050000000     0.005420000000     0.190330000000     0.0186804  
C77      C      0.702170000000     0.032010000000     0.219160000000     0.0185704  
C78      C      0.719180000000     0.026530000000     0.253950000000    -0.0652903  
C79      C      0.762240000000     0.980310000000     0.291850000000    -0.0275461  
C80      C      0.729200000000     0.971860000000     0.194650000000    -0.065338   
C81      C      0.741330000000     0.992970000000     0.258270000000     0.0186004  
C82      C      0.746210000000     0.966380000000     0.229440000000     0.0186127  
C83      C      0.406600000000     0.268080000000     0.262240000000    -0.027651   
C84      C      0.541650000000     0.230200000000     0.186090000000    -0.0276541  
C85      C      0.491110000000     0.183510000000     0.177710000000    -0.0275883  
C86      C      0.479260000000     0.216270000000     0.202220000000     0.0185642  
C87      C      0.508080000000     0.242890000000     0.206990000000     0.0186538  
C88      C      0.503760000000     0.276520000000     0.229070000000    -0.0653659  
C89      C      0.457150000000     0.314780000000     0.270610000000    -0.0277092  
C90      C      0.444490000000     0.221770000000     0.219250000000    -0.0652916  
C91      C      0.468990000000     0.282020000000     0.246090000000     0.0186459  
C92      C      0.440170000000     0.255390000000     0.241320000000     0.0186174  
C93      C      0.270690000000     0.933590000000     0.741160000000    -0.0276231  
C94      C      0.177860000000     0.064940000000     0.707290000000    -0.027654   
C95      C      0.186110000000     0.018210000000     0.656750000000    -0.0276829  
C96      C      0.207070000000     0.005520000000     0.690290000000     0.0186397  
C97      C      0.202360000000     0.032160000000     0.719110000000     0.0186136  
C98      C      0.219440000000     0.026660000000     0.753850000000    -0.0653368  
C99      C      0.262440000000     0.980320000000     0.791700000000    -0.0277286  
C100     C      0.229110000000     0.971870000000     0.694600000000    -0.0653173  
C101     C      0.241490000000     0.993020000000     0.758160000000     0.0186633  
C102     C      0.246190000000     0.966370000000     0.729340000000     0.0185955  
C103     C      0.491240000000     0.683530000000     0.677550000000    -0.0277292  
C104     C      0.457270000000     0.814730000000     0.770540000000    -0.0276932  
C105     C      0.406710000000     0.768070000000     0.762080000000    -0.0276302  
C106     C      0.440280000000     0.755380000000     0.741180000000     0.0186069  
C107     C      0.469110000000     0.781990000000     0.746000000000     0.0186374  
C108     C      0.503890000000     0.776490000000     0.729000000000    -0.0653413  
C109     C      0.541800000000     0.730200000000     0.686010000000    -0.0276735  
C110     C      0.444610000000     0.721780000000     0.719080000000    -0.0652873  
C111     C      0.508220000000     0.742890000000     0.706900000000     0.0186431  
C112     C      0.479390000000     0.716280000000     0.702070000000     0.0186139  
C113     C      0.427820000000     0.933410000000     0.957130000000    -0.0277208  
C114     C      0.520740000000     0.064640000000     0.991170000000    -0.0276945  
C115     C      0.512300000000     0.017950000000     0.041710000000    -0.027686   
C116     C      0.491420000000     0.005260000000     0.008120000000     0.0186995  
C117     C      0.496230000000     0.031890000000     0.979300000000     0.0185413  
C118     C      0.479230000000     0.026390000000     0.944520000000    -0.065288   
C119     C      0.436260000000     0.980100000000     0.906590000000    -0.0276306  
C120     C      0.469340000000     0.971650000000     0.003770000000    -0.0652526  
C121     C      0.457150000000     0.992780000000     0.940170000000     0.0186214  
C122     C      0.452340000000     0.966160000000     0.968990000000     0.0185746  
C123     C      0.957310000000     0.815000000000     0.270790000000    -0.0276163  
C124     C      0.991290000000     0.683740000000     0.177890000000    -0.0277392  
C125     C      0.041820000000     0.730470000000     0.186220000000    -0.0276729  
C126     C      0.008260000000     0.743140000000     0.207160000000     0.0186765  
C127     C      0.979450000000     0.716490000000     0.202410000000     0.0185853  
C128     C      0.944690000000     0.721970000000     0.219460000000    -0.0653449  
C129     C      0.906800000000     0.768260000000     0.262460000000    -0.0276722  
C130     C      0.003920000000     0.776770000000     0.229230000000    -0.0652685  
C131     C      0.940360000000     0.755600000000     0.241530000000     0.0186608  
C132     C      0.969170000000     0.782250000000     0.246280000000     0.0185403  
C133     C      0.207220000000     0.683600000000     0.020620000000    -0.0275212  
C134     C      0.241250000000     0.814790000000     0.927650000000    -0.0276851  
C135     C      0.291750000000     0.768020000000     0.935970000000    -0.0276051  
C136     C      0.258180000000     0.755380000000     0.956920000000     0.018588   
C137     C      0.229390000000     0.782050000000     0.952180000000     0.0186383  
C138     C      0.194640000000     0.776610000000     0.969250000000    -0.0653235  
C139     C      0.156730000000     0.730370000000     0.012290000000    -0.0275677  
C140     C      0.253840000000     0.721770000000     0.979010000000    -0.0652637  
C141     C      0.190290000000     0.743000000000     0.991330000000     0.018606   
C142     C      0.219080000000     0.716330000000     0.996080000000     0.0185135  
C143     C      0.177890000000     0.565000000000     0.207230000000    -0.0276811  
C144     C      0.270580000000     0.433580000000     0.241240000000    -0.0277076  
C145     C      0.262390000000     0.480390000000     0.291720000000    -0.0276277  
C146     C      0.241450000000     0.493060000000     0.258170000000     0.0186097  
C147     C      0.246120000000     0.466380000000     0.229390000000     0.0186387  
C148     C      0.229040000000     0.471850000000     0.194640000000    -0.0653289  
C149     C      0.186080000000     0.518190000000     0.156750000000    -0.0277138  
C150     C      0.219430000000     0.526730000000     0.253830000000    -0.0653081  
C151     C      0.207020000000     0.505520000000     0.190300000000     0.0186532  
C152     C      0.202350000000     0.532210000000     0.219090000000     0.0186144  
C153     C      0.906710000000     0.268180000000     0.762580000000    -0.0276384  
C154     C      0.041780000000     0.230390000000     0.686420000000    -0.0276345  
C155     C      0.991240000000     0.183690000000     0.678010000000    -0.0277171  
C156     C      0.979390000000     0.216420000000     0.702550000000     0.0185609  
C157     C      0.008210000000     0.243050000000     0.707350000000     0.018667   
C158     C      0.003870000000     0.276660000000     0.729440000000    -0.0652369  
C159     C      0.957240000000     0.314880000000     0.771000000000    -0.0276549  
C160     C      0.944620000000     0.221900000000     0.719580000000    -0.065299   
C161     C      0.969100000000     0.282140000000     0.746470000000     0.0185331  
C162     C      0.940290000000     0.255510000000     0.741680000000     0.018632   
C163     C      0.656600000000     0.230180000000     0.012330000000    -0.0275176  
C164     C      0.791730000000     0.268180000000     0.936370000000    -0.0276434  
C165     C      0.741130000000     0.314790000000     0.927870000000    -0.0277208  
C166     C      0.729290000000     0.282040000000     0.952390000000     0.0186221  
C167     C      0.758150000000     0.255470000000     0.957240000000     0.0186194  
C168     C      0.753830000000     0.221860000000     0.979340000000    -0.06532    
C169     C      0.707200000000     0.183570000000     0.020830000000    -0.0275891  
C170     C      0.694500000000     0.276510000000     0.969370000000    -0.0653184  
C171     C      0.719040000000     0.216320000000     0.996310000000     0.0185609  
C172     C      0.690190000000     0.242900000000     0.991460000000     0.0185713  
C173     C      0.762180000000     0.480250000000     0.791890000000    -0.0276922  
C174     C      0.686280000000     0.518100000000     0.656690000000    -0.0276417  
C175     C      0.677700000000     0.564730000000     0.707260000000    -0.0277679  
C176     C      0.702240000000     0.532010000000     0.719130000000     0.0186458  
C177     C      0.707140000000     0.505420000000     0.690300000000     0.0186074  
C178     C      0.729260000000     0.471840000000     0.694650000000    -0.0652836  
C179     C      0.770760000000     0.433620000000     0.741320000000    -0.0277268  
C180     C      0.719200000000     0.526510000000     0.753930000000    -0.0653058  
C181     C      0.746220000000     0.466340000000     0.729450000000     0.0186198  
C182     C      0.741320000000     0.492930000000     0.758280000000     0.0186358  
C183     C      0.935990000000     0.480460000000     0.906890000000    -0.0276923  
C184     C      0.012230000000     0.518320000000     0.041900000000    -0.027502   
C185     C      0.020590000000     0.565010000000     0.991350000000    -0.0276405  
C186     C      0.996050000000     0.532270000000     0.979520000000     0.0185218  
C187     C      0.991280000000     0.505640000000     0.008350000000     0.0186125  
C188     C      0.969200000000     0.472030000000     0.004040000000    -0.0652188  
C189     C      0.927630000000     0.433780000000     0.957440000000    -0.0275551  
C190     C      0.979000000000     0.526770000000     0.944770000000    -0.0653193  
C191     C      0.952150000000     0.466530000000     0.969280000000     0.0184829  
C192     C      0.956920000000     0.493150000000     0.940450000000     0.0186572  
Cd1      Cd     0.849170000000     0.374280000000     0.849440000000     0.507005   
Cd2      Cd     0.099240000000     0.624360000000     0.099290000000     0.50701    
Cd3      Cd     0.349270000000     0.874110000000     0.849090000000     0.506999   
Cd4      Cd     0.599150000000     0.124080000000     0.099240000000     0.507015   
Cd5      Cd     0.349200000000     0.374190000000     0.349190000000     0.506998   
Cd6      Cd     0.599320000000     0.624100000000     0.599140000000     0.506998   
Cd7      Cd     0.849290000000     0.874360000000     0.349340000000     0.507012   
Cd8      Cd     0.099220000000     0.124390000000     0.599390000000     0.507025   
H1       H      0.955130000000     0.975640000000     0.382850000000     0.0529903  
H2       H      0.942580000000     0.905190000000     0.458980000000     0.0525678  
H3       H      0.965590000000     0.951230000000     0.526480000000     0.0503161  
H4       H      0.982780000000     0.047650000000     0.422280000000     0.0503485  
H5       H      0.046100000000     0.066680000000     0.473870000000     0.0523225  
H6       H      0.993260000000     0.023250000000     0.565910000000     0.0529326  
H7       H      0.914820000000     0.002640000000     0.398750000000     0.0527464  
H8       H      0.902260000000     0.932200000000     0.474870000000     0.0522772  
H9       H      0.033550000000     0.996220000000     0.550000000000     0.0527509  
H10      H      0.005810000000     0.093690000000     0.489800000000     0.0526264  
H11      H      0.632810000000     0.725260000000     0.493200000000     0.0530218  
H12      H      0.709040000000     0.654990000000     0.505950000000     0.0526158  
H13      H      0.776500000000     0.701140000000     0.482980000000     0.0503401  
H14      H      0.672140000000     0.797320000000     0.465530000000     0.0503663  
H15      H      0.723800000000     0.816390000000     0.402260000000     0.0522884  
H16      H      0.815840000000     0.773210000000     0.455310000000     0.0529901  
H17      H      0.648600000000     0.752350000000     0.533500000000     0.0527669  
H18      H      0.724840000000     0.682080000000     0.546250000000     0.0523012  
H19      H      0.800050000000     0.746120000000     0.415010000000     0.0527459  
H20      H      0.739600000000     0.843480000000     0.442560000000     0.0525948  
H21      H      0.132680000000     0.225610000000     0.493500000000     0.053028   
H22      H      0.208770000000     0.155100000000     0.505980000000     0.0526088  
H23      H      0.276280000000     0.201060000000     0.482850000000     0.0503338  
H24      H      0.172140000000     0.297580000000     0.465770000000     0.0503629  
H25      H      0.223670000000     0.316530000000     0.402370000000     0.0522854  
H26      H      0.315730000000     0.273030000000     0.455120000000     0.0530069  
H27      H      0.148660000000     0.252610000000     0.533780000000     0.0527727  
H28      H      0.224740000000     0.182110000000     0.546260000000     0.0522951  
H29      H      0.299750000000     0.246020000000     0.414850000000     0.0527562  
H30      H      0.239650000000     0.343540000000     0.442640000000     0.0525913  
H31      H      0.402320000000     0.431980000000     0.474670000000     0.0523091  
H32      H      0.415020000000     0.502320000000     0.398490000000     0.0527709  
H33      H      0.483060000000     0.547210000000     0.421980000000     0.0503348  
H34      H      0.465670000000     0.450930000000     0.526270000000     0.0503524  
H35      H      0.493420000000     0.522930000000     0.565640000000     0.0529919  
H36      H      0.546400000000     0.566170000000     0.473600000000     0.0522824  
H37      H      0.442570000000     0.404870000000     0.458790000000     0.0526065  
H38      H      0.455280000000     0.475200000000     0.382610000000     0.0530099  
H39      H      0.506130000000     0.593270000000     0.489440000000     0.0525985  
H40      H      0.533700000000     0.495840000000     0.549780000000     0.052726   
H41      H      0.664940000000     0.995920000000     0.148580000000     0.0527767  
H42      H      0.652060000000     0.066180000000     0.224790000000     0.0522845  
H43      H      0.715370000000     0.047290000000     0.276460000000     0.0503414  
H44      H      0.733010000000     0.951100000000     0.172140000000     0.0503569  
H45      H      0.756080000000     0.905040000000     0.239610000000     0.0525945  
H46      H      0.783440000000     0.002490000000     0.300010000000     0.0527314  
H47      H      0.705190000000     0.023080000000     0.132780000000     0.0530383  
H48      H      0.692300000000     0.093360000000     0.208990000000     0.052594   
H49      H      0.743200000000     0.975310000000     0.315820000000     0.0529858  
H50      H      0.796320000000     0.932210000000     0.223800000000     0.0522909  
H51      H      0.473600000000     0.181950000000     0.152200000000     0.0522734  
H52      H      0.549770000000     0.252320000000     0.164820000000     0.0527587  
H53      H      0.526260000000     0.297300000000     0.232790000000     0.0503728  
H54      H      0.421990000000     0.200980000000     0.215520000000     0.0503451  
H55      H      0.382610000000     0.273020000000     0.243210000000     0.053008   
H56      H      0.474670000000     0.316330000000     0.296120000000     0.0523023  
H57      H      0.489470000000     0.154900000000     0.192500000000     0.0525785  
H58      H      0.565640000000     0.225270000000     0.205120000000     0.0530162  
H59      H      0.458780000000     0.343380000000     0.255830000000     0.0526127  
H60      H      0.398490000000     0.245960000000     0.283500000000     0.0527722  
H61      H      0.164810000000     0.996110000000     0.648680000000     0.0527802  
H62      H      0.152380000000     0.066530000000     0.724840000000     0.0522939  
H63      H      0.215770000000     0.047460000000     0.776350000000     0.0503538  
H64      H      0.232780000000     0.951070000000     0.672100000000     0.0503511  
H65      H      0.255870000000     0.905000000000     0.739560000000     0.0525907  
H66      H      0.283740000000     0.002410000000     0.799770000000     0.0527828  
H67      H      0.205100000000     0.023110000000     0.632730000000     0.0530225  
H68      H      0.192680000000     0.093530000000     0.708890000000     0.0525866  
H69      H      0.243440000000     0.975420000000     0.815720000000     0.0530297  
H70      H      0.296170000000     0.931990000000     0.723610000000     0.0522768  
H71      H      0.398560000000     0.745930000000     0.783320000000     0.0527538  
H72      H      0.474760000000     0.816250000000     0.796060000000     0.0523066  
H73      H      0.526400000000     0.797260000000     0.732760000000     0.0503522  
H74      H      0.422100000000     0.701000000000     0.715320000000     0.0503323  
H75      H      0.489580000000     0.654920000000     0.692310000000     0.0526211  
H76      H      0.549950000000     0.752330000000     0.664770000000     0.0527639  
H77      H      0.382730000000     0.773040000000     0.743040000000     0.0529984  
H78      H      0.458920000000     0.843350000000     0.755780000000     0.0526026  
H79      H      0.565770000000     0.725240000000     0.705060000000     0.0530166  
H80      H      0.473760000000     0.682010000000     0.652020000000     0.0523129  
H81      H      0.533550000000     0.995830000000     0.049850000000     0.0527777  
H82      H      0.546270000000     0.066180000000     0.973690000000     0.0522875  
H83      H      0.482990000000     0.047180000000     0.922020000000     0.0503283  
H84      H      0.465580000000     0.950870000000     0.026280000000     0.0503403  
H85      H      0.442580000000     0.904800000000     0.958770000000     0.0526004  
H86      H      0.415020000000     0.002240000000     0.898450000000     0.0527605  
H87      H      0.493250000000     0.022890000000     0.065680000000     0.0530245  
H88      H      0.505970000000     0.093250000000     0.989510000000     0.0525857  
H89      H      0.455300000000     0.975150000000     0.882610000000     0.0530015  
H90      H      0.402300000000     0.931870000000     0.974620000000     0.0523027  
H91      H      0.065830000000     0.725560000000     0.205230000000     0.0530238  
H92      H      0.989690000000     0.655140000000     0.192680000000     0.0526032  
H93      H      0.922200000000     0.701170000000     0.215750000000     0.050357   
H94      H      0.026410000000     0.797570000000     0.232930000000     0.0503644  
H95      H      0.974840000000     0.816580000000     0.296290000000     0.0522665  
H96      H      0.882790000000     0.773170000000     0.243450000000     0.0530148  
H97      H      0.049900000000     0.752590000000     0.164940000000     0.0527859  
H98      H      0.973760000000     0.682160000000     0.152400000000     0.0523036  
H99      H      0.898710000000     0.746140000000     0.283740000000     0.0527618  
H100     H      0.958920000000     0.843600000000     0.256000000000     0.0525753  
H101     H      0.299810000000     0.745890000000     0.914700000000     0.0527478  
H102     H      0.223720000000     0.816370000000     0.902150000000     0.0522945  
H103     H      0.172160000000     0.797430000000     0.965540000000     0.0503401  
H104     H      0.276320000000     0.700950000000     0.982720000000     0.050317   
H105     H      0.208800000000     0.654980000000     0.005840000000     0.0525779  
H106     H      0.148670000000     0.752510000000     0.033560000000     0.0527657  
H107     H      0.315770000000     0.772910000000     0.954980000000     0.0529871  
H108     H      0.239670000000     0.843400000000     0.942430000000     0.0526025  
H109     H      0.132710000000     0.725470000000     0.993300000000     0.0529603  
H110     H      0.224760000000     0.682020000000     0.046110000000     0.0522736  
H111     H      0.243390000000     0.475540000000     0.315760000000     0.0529973  
H112     H      0.255740000000     0.405010000000     0.239680000000     0.0526206  
H113     H      0.232680000000     0.451020000000     0.172160000000     0.0503601  
H114     H      0.215790000000     0.547560000000     0.276310000000     0.0503505  
H115     H      0.152410000000     0.566640000000     0.224790000000     0.0522949  
H116     H      0.205070000000     0.523040000000     0.132720000000     0.0530388  
H117     H      0.283710000000     0.502470000000     0.299770000000     0.0527621  
H118     H      0.296060000000     0.431940000000     0.223690000000     0.0523087  
H119     H      0.164760000000     0.496110000000     0.148700000000     0.0527934  
H120     H      0.192730000000     0.593570000000     0.208790000000     0.0526111  
H121     H      0.973730000000     0.182150000000     0.652500000000     0.0522946  
H122     H      0.049890000000     0.252540000000     0.665170000000     0.0527635  
H123     H      0.026370000000     0.297450000000     0.733180000000     0.0503405  
H124     H      0.922120000000     0.201110000000     0.715830000000     0.0503325  
H125     H      0.882720000000     0.273110000000     0.743550000000     0.0530066  
H126     H      0.974740000000     0.316420000000     0.796510000000     0.0522763  
H127     H      0.989620000000     0.155070000000     0.692770000000     0.0525894  
H128     H      0.065770000000     0.225450000000     0.705440000000     0.0530114  
H129     H      0.958880000000     0.343490000000     0.756230000000     0.0525885  
H130     H      0.898590000000     0.246050000000     0.783840000000     0.0527478  
H131     H      0.739440000000     0.343410000000     0.942620000000     0.0526009  
H132     H      0.815680000000     0.273180000000     0.955440000000     0.0529924  
H133     H      0.776350000000     0.201110000000     0.983120000000     0.0503352  
H134     H      0.671980000000     0.297260000000     0.965580000000     0.05034    
H135     H      0.648420000000     0.252310000000     0.033560000000     0.0527526  
H136     H      0.708900000000     0.154950000000     0.006080000000     0.0525984  
H137     H      0.723660000000     0.316300000000     0.902330000000     0.0523089  
H138     H      0.799920000000     0.246050000000     0.915150000000     0.0527626  
H139     H      0.724670000000     0.182070000000     0.046380000000     0.05228    
H140     H      0.632650000000     0.225190000000     0.993260000000     0.0529448  
H141     H      0.692430000000     0.593360000000     0.708950000000     0.0526258  
H142     H      0.705360000000     0.523090000000     0.632750000000     0.0530039  
H143     H      0.733080000000     0.451080000000     0.672130000000     0.0503241  
H144     H      0.715380000000     0.547270000000     0.776450000000     0.0503283  
H145     H      0.783380000000     0.502400000000     0.800080000000     0.052776   
H146     H      0.756040000000     0.404990000000     0.739630000000     0.0526206  
H147     H      0.652150000000     0.566220000000     0.724700000000     0.0523291  
H148     H      0.665080000000     0.495950000000     0.648500000000     0.0527627  
H149     H      0.796320000000     0.432130000000     0.723870000000     0.0523034  
H150     H      0.743110000000     0.475250000000     0.815830000000     0.0530247  
H151     H      0.005820000000     0.593620000000     0.989730000000     0.0525909  
H152     H      0.993220000000     0.523270000000     0.065910000000     0.0529338  
H153     H      0.965480000000     0.451240000000     0.026540000000     0.0503287  
H154     H      0.982730000000     0.547550000000     0.922260000000     0.0503238  
H155     H      0.914730000000     0.502580000000     0.898780000000     0.0527583  
H156     H      0.942410000000     0.405170000000     0.959090000000     0.0525532  
H157     H      0.046090000000     0.566550000000     0.973820000000     0.0522851  
H158     H      0.033480000000     0.496190000000     0.050010000000     0.052761   
H159     H      0.902120000000     0.432230000000     0.974960000000     0.0522418  
H160     H      0.955010000000     0.475530000000     0.882900000000     0.0530234  
N1       N      0.029830000000     0.055090000000     0.530030000000    -0.151341   
N2       N      0.918560000000     0.943770000000     0.418720000000    -0.151391   
N3       N      0.779960000000     0.804950000000     0.418650000000    -0.151382   
N4       N      0.668680000000     0.693520000000     0.529860000000    -0.151324   
N5       N      0.279840000000     0.304910000000     0.418590000000    -0.151349   
N6       N      0.168580000000     0.193720000000     0.530030000000    -0.151373   
N7       N      0.530050000000     0.554690000000     0.529750000000    -0.151344   
N8       N      0.418640000000     0.443470000000     0.418510000000    -0.151314   
N9       N      0.779920000000     0.943640000000     0.279960000000    -0.151418   
N10      N      0.668480000000     0.054760000000     0.168640000000    -0.151309   
N11      N      0.418500000000     0.304810000000     0.279810000000    -0.151306   
N12      N      0.529760000000     0.193460000000     0.168520000000    -0.151357   
N13      N      0.279950000000     0.943550000000     0.779790000000    -0.151344   
N14      N      0.168590000000     0.054970000000     0.668660000000    -0.151368   
N15      N      0.529910000000     0.693480000000     0.668400000000    -0.151335   
N16      N      0.418610000000     0.804780000000     0.779700000000    -0.15132    
N17      N      0.418650000000     0.943380000000     0.918470000000    -0.151345   
N18      N      0.529890000000     0.054680000000     0.029830000000    -0.151326   
N19      N      0.918680000000     0.805010000000     0.280020000000    -0.151325   
N20      N      0.029930000000     0.693720000000     0.168660000000    -0.151329   
N21      N      0.168600000000     0.693620000000     0.029860000000    -0.151371   
N22      N      0.279880000000     0.804770000000     0.918420000000    -0.151335   
N23      N      0.168600000000     0.554990000000     0.168610000000    -0.151344   
N24      N      0.279860000000     0.443590000000     0.279860000000    -0.151345   
N25      N      0.918590000000     0.304910000000     0.780170000000    -0.151336   
N26      N      0.029890000000     0.193670000000     0.668810000000    -0.151356   
N27      N      0.668520000000     0.193480000000     0.029950000000    -0.15133    
N28      N      0.779820000000     0.304880000000     0.918740000000    -0.151385   
N29      N      0.779850000000     0.443560000000     0.780010000000    -0.151339   
N30      N      0.668620000000     0.554790000000     0.668570000000    -0.151331   
N31      N      0.918430000000     0.443720000000     0.918790000000    -0.151371   
N32      N      0.029810000000     0.555040000000     0.029990000000    -0.151345   
O1       O      0.809090000000     0.431210000000     0.835500000000    -0.246373   
O2       O      0.835280000000     0.317300000000     0.889480000000    -0.246466   
O3       O      0.889130000000     0.431320000000     0.863350000000    -0.246531   
O4       O      0.907900000000     0.358670000000     0.816910000000    -0.250678   
O5       O      0.863120000000     0.317270000000     0.809460000000    -0.246356   
O6       O      0.881710000000     0.389940000000     0.908150000000    -0.250726   
O7       O      0.816680000000     0.389870000000     0.790690000000    -0.250691   
O8       O      0.790450000000     0.358610000000     0.881950000000    -0.250704   
O9       O      0.113180000000     0.681340000000     0.059270000000    -0.246373   
O10      O      0.131920000000     0.608800000000     0.157950000000    -0.250676   
O11      O      0.066600000000     0.608770000000     0.040620000000    -0.250761   
O12      O      0.085350000000     0.681380000000     0.139290000000    -0.246412   
O13      O      0.040570000000     0.639960000000     0.131920000000    -0.250681   
O14      O      0.059200000000     0.567390000000     0.085410000000    -0.246357   
O15      O      0.157920000000     0.639880000000     0.066630000000    -0.25064    
O16      O      0.139180000000     0.567310000000     0.113210000000    -0.246323   
O17      O      0.407970000000     0.858500000000     0.816510000000    -0.25062    
O18      O      0.389330000000     0.931060000000     0.863020000000    -0.246399   
O19      O      0.335320000000     0.817090000000     0.889060000000    -0.246373   
O20      O      0.316640000000     0.889740000000     0.790420000000    -0.250662   
O21      O      0.309340000000     0.931160000000     0.835200000000    -0.246428   
O22      O      0.290570000000     0.858540000000     0.881690000000    -0.250682   
O23      O      0.363160000000     0.817140000000     0.809030000000    -0.246372   
O24      O      0.381850000000     0.889660000000     0.907800000000    -0.250639   
O25      O      0.566630000000     0.108440000000     0.040510000000    -0.25068    
O26      O      0.540430000000     0.139690000000     0.131790000000    -0.250667   
O27      O      0.657880000000     0.139740000000     0.066740000000    -0.250647   
O28      O      0.639210000000     0.067130000000     0.113160000000    -0.246323   
O29      O      0.631640000000     0.108460000000     0.157980000000    -0.250639   
O30      O      0.613050000000     0.181060000000     0.059200000000    -0.246455   
O31      O      0.559160000000     0.067070000000     0.085300000000    -0.246447   
O32      O      0.585210000000     0.181090000000     0.139210000000    -0.246485   
O33      O      0.290520000000     0.358670000000     0.381850000000    -0.250724   
O34      O      0.407870000000     0.358570000000     0.316570000000    -0.250716   
O35      O      0.381810000000     0.389760000000     0.407880000000    -0.250633   
O36      O      0.309280000000     0.431250000000     0.335260000000    -0.246433   
O37      O      0.316530000000     0.389770000000     0.290520000000    -0.250651   
O38      O      0.389270000000     0.431140000000     0.363080000000    -0.246366   
O39      O      0.335250000000     0.317190000000     0.389180000000    -0.246486   
O40      O      0.363070000000     0.317190000000     0.309170000000    -0.246379   
O41      O      0.585380000000     0.681090000000     0.639140000000    -0.246495   
O42      O      0.566800000000     0.608450000000     0.540410000000    -0.250711   
O43      O      0.631800000000     0.608490000000     0.657890000000    -0.250689   
O44      O      0.658050000000     0.639760000000     0.566620000000    -0.250628   
O45      O      0.613220000000     0.681100000000     0.559120000000    -0.246411   
O46      O      0.639390000000     0.567160000000     0.613080000000    -0.246491   
O47      O      0.540580000000     0.639730000000     0.631640000000    -0.250646   
O48      O      0.559340000000     0.567090000000     0.585210000000    -0.246494   
O49      O      0.889240000000     0.931400000000     0.363270000000    -0.246404   
O50      O      0.863240000000     0.817350000000     0.309370000000    -0.246444   
O51      O      0.809200000000     0.931290000000     0.335420000000    -0.246417   
O52      O      0.790580000000     0.858700000000     0.381880000000    -0.250655   
O53      O      0.835410000000     0.817370000000     0.389370000000    -0.246416   
O54      O      0.816770000000     0.889960000000     0.290610000000    -0.250737   
O55      O      0.881870000000     0.889980000000     0.408040000000    -0.250691   
O56      O      0.908000000000     0.858780000000     0.316750000000    -0.250729   
O57      O      0.059210000000     0.067400000000     0.585460000000    -0.246286   
O58      O      0.131880000000     0.108770000000     0.658040000000    -0.250736   
O59      O      0.040540000000     0.139960000000     0.632010000000    -0.250802   
O60      O      0.113160000000     0.181410000000     0.559420000000    -0.246445   
O61      O      0.157900000000     0.139950000000     0.566750000000    -0.250713   
O62      O      0.085320000000     0.181350000000     0.639450000000    -0.246425   
O63      O      0.066580000000     0.108850000000     0.540700000000    -0.250577   
O64      O      0.139180000000     0.067350000000     0.613270000000    -0.24646    


