data_structure

_audit_creation_method RASPA-1.0
_audit_creation_date 2023-5-23
_audit_author_name 'Poobodin Mano'

_cell_length_a    34.6443
_cell_length_b    35.7376
_cell_length_c    32.7333
_cell_angle_alpha 90.0021
_cell_angle_beta  90.0021
_cell_angle_gamma 120
_cell_volume      35097.6

_symmetry_cell_setting          triclinic
_symmetry_space_group_name_Hall 'P 1'
_symmetry_space_group_name_H-M  'P 1'
_symmetry_Int_Tables_number     1

_symmetry_equiv_pos_as_xyz 'x,y,z'

loop_
_atom_site_label
_atom_site_type_symbol
_atom_site_fract_x
_atom_site_fract_y
_atom_site_fract_z
_atom_site_charge
C1       C      0.731260000000     0.456720000000     0.241600000000     0.343607   
C2       C      0.678450000000     0.454090000000     0.373050000000     0.343455   
C3       C      0.823890000000     0.558150000000     0.343670000000     0.34536    
C4       C      0.705010000000     0.568090000000     0.283760000000     0.343558   
C5       C      0.461020000000     0.771500000000     0.218730000000     0.34202    
C6       C      0.453500000000     0.703170000000     0.099890000000     0.343915   
C7       C      0.577410000000     0.846450000000     0.125010000000     0.343398   
C8       C      0.565810000000     0.722870000000     0.188520000000     0.344439   
C9       C      0.670510000000     0.199510000000     0.917940000000     0.341645   
C10      C      0.732900000000     0.269580000000     0.036060000000     0.34357    
C11      C      0.713290000000     0.126970000000     0.011400000000     0.343768   
C12      C      0.826140000000     0.251320000000     0.948020000000     0.343958   
C13      C      0.263660000000     0.516660000000     0.891470000000     0.34386    
C14      C      0.213570000000     0.520050000000     0.760610000000     0.343739   
C15      C      0.252730000000     0.415940000000     0.788560000000     0.345001   
C16      C      0.123760000000     0.404690000000     0.849590000000     0.343395   
C17      C      0.481420000000     0.205520000000     0.711080000000     0.344151   
C18      C      0.488330000000     0.270790000000     0.583410000000     0.342479   
C19      C      0.371000000000     0.130590000000     0.617830000000     0.343818   
C20      C      0.387470000000     0.262180000000     0.678620000000     0.345728   
C21      C      0.266820000000     0.768590000000     0.425220000000     0.344088   
C22      C      0.209220000000     0.704750000000     0.553470000000     0.342818   
C23      C      0.231640000000     0.843360000000     0.518530000000     0.344133   
C24      C      0.115210000000     0.711630000000     0.457920000000     0.345745   
C25      C      0.262140000000     0.921970000000     0.506060000000    -0.0276799  
C26      C      0.322160000000     0.051620000000     0.629910000000    -0.027656   
C27      C      0.337640000000     0.078570000000     0.560190000000    -0.0278399  
C28      C      0.311810000000     0.030660000000     0.560580000000     0.0186806  
C29      C      0.303080000000     0.015270000000     0.600350000000     0.0185464  
C30      C      0.281390000000     0.970900000000     0.608820000000    -0.0651908  
C31      C      0.247400000000     0.895000000000     0.575800000000    -0.027728   
C32      C      0.299120000000     0.002540000000     0.527070000000    -0.0652541  
C33      C      0.268500000000     0.942760000000     0.575290000000     0.0186002  
C34      C      0.277020000000     0.958160000000     0.535520000000     0.0186381  
C35      C      0.319470000000     0.266010000000     0.696620000000    -0.0275361  
C36      C      0.319750000000     0.411660000000     0.768780000000    -0.0277389  
C37      C      0.246260000000     0.349660000000     0.756510000000    -0.0274936  
C38      C      0.281590000000     0.340510000000     0.742830000000     0.0183415  
C39      C      0.323450000000     0.375930000000     0.749800000000     0.018952   
C40      C      0.362410000000     0.375370000000     0.739600000000    -0.0655997  
C41      C      0.392700000000     0.328430000000     0.708760000000    -0.0276426  
C42      C      0.276390000000     0.302430000000     0.725300000000    -0.0649614  
C43      C      0.357220000000     0.337380000000     0.722030000000     0.0188539  
C44      C      0.315420000000     0.301860000000     0.715090000000     0.0184025  
C45      C      0.240370000000     0.661110000000     0.582960000000    -0.0276996  
C46      C      0.184760000000     0.566080000000     0.732300000000    -0.0277447  
C47      C      0.241930000000     0.559850000000     0.694900000000    -0.0275906  
C48      C      0.229430000000     0.588590000000     0.672960000000     0.0184686  
C49      C      0.196760000000     0.592030000000     0.694260000000     0.0186869  
C50      C      0.179020000000     0.617120000000     0.679560000000    -0.0654467  
C51      C      0.182680000000     0.666680000000     0.620120000000    -0.0277596  
C52      C      0.246350000000     0.610210000000     0.635830000000    -0.0652173  
C53      C      0.195890000000     0.638690000000     0.642420000000     0.0186534  
C54      C      0.228710000000     0.635420000000     0.621190000000     0.0184779  
C55      C      0.880720000000     0.287980000000     0.891910000000    -0.027851   
C56      C      0.069050000000     0.359100000000     0.903090000000    -0.0275795  
C57      C      0.042020000000     0.368230000000     0.837410000000    -0.0279375  
C58      C      0.004340000000     0.343220000000     0.865740000000     0.0189207  
C59      C      0.019670000000     0.337750000000     0.903140000000     0.0181794  
C60      C      0.990310000000     0.316010000000     0.935460000000    -0.0647648  
C61      C      0.907120000000     0.276970000000     0.957150000000    -0.0273961  
C62      C      0.958960000000     0.327770000000     0.858700000000    -0.0655355  
C63      C      0.944820000000     0.300140000000     0.928270000000     0.0182247  
C64      C      0.929660000000     0.306130000000     0.891000000000     0.0190036  
C65      C      0.604570000000     0.205210000000     0.896940000000    -0.0278439  
C66      C      0.539150000000     0.187850000000     0.733900000000    -0.0276335  
C67      C      0.502500000000     0.209440000000     0.784330000000    -0.0277651  
C68      C      0.536790000000     0.202200000000     0.803970000000     0.0187507  
C69      C      0.557700000000     0.189890000000     0.775240000000     0.0184686  
C70      C      0.592430000000     0.182440000000     0.786150000000    -0.0652162  
C71      C      0.641280000000     0.183530000000     0.846680000000    -0.0277695  
C72      C      0.549410000000     0.207790000000     0.845180000000    -0.0654173  
C73      C      0.604900000000     0.187820000000     0.827420000000     0.0185022  
C74      C      0.583970000000     0.200160000000     0.856110000000     0.0186643  
C75      C      0.387720000000     0.761920000000     0.240330000000    -0.0278364  
C76      C      0.343230000000     0.788910000000     0.401410000000    -0.0275606  
C77      C      0.282250000000     0.760410000000     0.352500000000    -0.0277768  
C78      C      0.324100000000     0.768300000000     0.332570000000     0.0188014  
C79      C      0.358900000000     0.784580000000     0.360420000000     0.01842    
C80      C      0.401720000000     0.793470000000     0.349150000000    -0.065166   
C81      C      0.448920000000     0.790600000000     0.289000000000    -0.0277406  
C82      C      0.330100000000     0.759960000000     0.291940000000    -0.0654668  
C83      C      0.407780000000     0.785330000000     0.308430000000     0.0184588  
C84      C      0.372920000000     0.769010000000     0.280640000000     0.018707   
C85      C      0.611460000000     0.894930000000     0.065090000000    -0.0279452  
C86      C      0.700960000000     0.079060000000     0.071090000000    -0.0278988  
C87      C      0.684230000000     0.048020000000     0.002870000000    -0.027571   
C88      C      0.670830000000     0.013680000000     0.034180000000     0.0185002  
C89      C      0.680180000000     0.031380000000     0.073090000000     0.0187248  
C90      C      0.667780000000     0.005260000000     0.108050000000    -0.0652715  
C91      C      0.626900000000     0.925920000000     0.133320000000    -0.0278366  
C92      C      0.648930000000     0.968890000000     0.028060000000    -0.0650972  
C93      C      0.646040000000     0.960470000000     0.101930000000     0.018619   
C94      C      0.637060000000     0.942780000000     0.063010000000     0.0186302  
C95      C      0.403910000000     0.688990000000     0.039940000000    -0.0277251  
C96      C      0.306040000000     0.527990000000     0.956270000000    -0.0275485  
C97      C      0.300290000000     0.587620000000     0.927210000000    -0.0277957  
C98      C      0.328430000000     0.601710000000     0.964420000000     0.0188438  
C99      C      0.331730000000     0.567740000000     0.981060000000     0.0182405  
C100     C      0.357530000000     0.573300000000     0.015970000000    -0.0649844  
C101     C      0.409680000000     0.629540000000     0.069440000000    -0.0274986  
C102     C      0.350750000000     0.643110000000     0.981670000000    -0.0656736  
C103     C      0.379720000000     0.614710000000     0.033340000000     0.0183044  
C104     C      0.376430000000     0.648650000000     0.016600000000     0.0189744  
C105     C      0.499470000000     0.306640000000     0.515730000000    -0.0277267  
C106     C      0.667510000000     0.417430000000     0.440340000000    -0.0276684  
C107     C      0.602660000000     0.406070000000     0.401540000000    -0.0276628  
C108     C      0.588880000000     0.381630000000     0.440490000000     0.0186425  
C109     C      0.625840000000     0.388010000000     0.462580000000     0.0185217  
C110     C      0.621460000000     0.368230000000     0.500610000000    -0.0652679  
C111     C      0.564210000000     0.317380000000     0.554310000000    -0.0277778  
C112     C      0.545500000000     0.355270000000     0.455240000000    -0.065425   
C113     C      0.578060000000     0.341770000000     0.515320000000     0.0185353  
C114     C      0.541130000000     0.335550000000     0.493280000000     0.0186157  
C115     C      0.894810000000     0.562210000000     0.365050000000    -0.0277036  
C116     C      0.043940000000     0.708100000000     0.437850000000    -0.0275638  
C117     C      0.052110000000     0.644930000000     0.428360000000    -0.0276052  
C118     C      0.007940000000     0.636260000000     0.413640000000     0.018734   
C119     C      0.003160000000     0.672210000000     0.419090000000     0.0184066  
C120     C      0.964110000000     0.671990000000     0.407350000000    -0.0649879  
C121     C      0.885940000000     0.624940000000     0.374850000000    -0.0275844  
C122     C      0.974110000000     0.598190000000     0.396050000000    -0.0654445  
C123     C      0.930190000000     0.633820000000     0.389820000000     0.0184469  
C124     C      0.935140000000     0.597980000000     0.384280000000     0.0188637  
C125     C      0.659970000000     0.603500000000     0.296480000000    -0.0277298  
C126     C      0.621270000000     0.698420000000     0.179140000000    -0.0275338  
C127     C      0.582480000000     0.685500000000     0.244030000000    -0.0278104  
C128     C      0.612700000000     0.667360000000     0.244520000000     0.018933   
C129     C      0.634630000000     0.674430000000     0.207450000000     0.0183638  
C130     C      0.663790000000     0.658680000000     0.199850000000    -0.0650565  
C131     C      0.697490000000     0.614560000000     0.231120000000    -0.0276886  
C132     C      0.619060000000     0.644670000000     0.276220000000    -0.0654649  
C133     C      0.670110000000     0.635900000000     0.231580000000     0.0184077  
C134     C      0.648540000000     0.629330000000     0.268790000000     0.0188293  
C135     C      0.695950000000     0.385250000000     0.206830000000    -0.0278275  
C136     C      0.763340000000     0.343530000000     0.065330000000    -0.0275171  
C137     C      0.697540000000     0.283470000000     0.095880000000    -0.0277914  
C138     C      0.710690000000     0.324020000000     0.118510000000     0.0188922  
C139     C      0.748250000000     0.358310000000     0.101170000000     0.0183234  
C140     C      0.767820000000     0.400000000000     0.117840000000    -0.0650731  
C141     C      0.762000000000     0.445490000000     0.176790000000    -0.0276367  
C142     C      0.690510000000     0.329470000000     0.153330000000    -0.0655388  
C143     C      0.747570000000     0.405470000000     0.152660000000     0.0183799  
C144     C      0.709930000000     0.371150000000     0.169860000000     0.0188025  
Cd1      Cd     0.735550000000     0.510130000000     0.309570000000     0.506809   
Cd2      Cd     0.516340000000     0.762280000000     0.158340000000     0.506464   
Cd3      Cd     0.736040000000     0.210500000000     0.978320000000     0.506376   
Cd4      Cd     0.213560000000     0.463460000000     0.823180000000     0.506834   
Cd5      Cd     0.430580000000     0.216720000000     0.647660000000     0.507149   
Cd6      Cd     0.205040000000     0.757650000000     0.489150000000     0.507136   
H1       H      0.318570000000     0.092090000000     0.545060000000     0.0521929  
H2       H      0.295510000000     0.052050000000     0.648450000000     0.0522024  
H3       H      0.275550000000     0.958910000000     0.639880000000     0.0503421  
H4       H      0.306750000000     0.014590000000     0.496060000000     0.050348   
H5       H      0.235470000000     0.920000000000     0.485770000000     0.0523913  
H6       H      0.267820000000     0.884480000000     0.593290000000     0.0530744  
H7       H      0.370000000000     0.090730000000     0.544100000000     0.0533304  
H8       H      0.346290000000     0.049550000000     0.650860000000     0.0528636  
H9       H      0.213540000000     0.879790000000     0.589510000000     0.0523166  
H10      H      0.290260000000     0.925590000000     0.486830000000     0.0528195  
H11      H      0.225190000000     0.326730000000     0.780740000000     0.0523618  
H12      H      0.336070000000     0.420220000000     0.799250000000     0.0528588  
H13      H      0.395080000000     0.403020000000     0.745110000000     0.0503899  
H14      H      0.243730000000     0.274700000000     0.719960000000     0.0504432  
H15      H      0.304040000000     0.236840000000     0.716430000000     0.0529314  
H16      H      0.413580000000     0.351110000000     0.684290000000     0.052182   
H17      H      0.224500000000     0.347600000000     0.730640000000     0.052509   
H18      H      0.335140000000     0.440950000000     0.749140000000     0.0530421  
H19      H      0.414610000000     0.331090000000     0.734730000000     0.0531462  
H20      H      0.303440000000     0.257170000000     0.666040000000     0.0522769  
H21      H      0.277790000000     0.577380000000     0.703420000000     0.0524309  
H22      H      0.191720000000     0.586820000000     0.759730000000     0.0530859  
H23      H      0.153350000000     0.619630000000     0.696100000000     0.0502925  
H24      H      0.271830000000     0.607490000000     0.619170000000     0.050228   
H25      H      0.275970000000     0.686960000000     0.582900000000     0.0525767  
H26      H      0.146760000000     0.648650000000     0.611860000000     0.0526616  
H27      H      0.235130000000     0.531370000000     0.675980000000     0.0523172  
H28      H      0.148960000000     0.540750000000     0.732440000000     0.0528013  
H29      H      0.189260000000     0.695320000000     0.638670000000     0.0528296  
H30      H      0.234000000000     0.640320000000     0.555660000000     0.0525735  
H31      H      0.042810000000     0.398190000000     0.826930000000     0.0534602  
H32      H      0.083930000000     0.384300000000     0.927210000000     0.052963   
H33      H      0.002280000000     0.312040000000     0.964780000000     0.0501777  
H34      H      0.947120000000     0.332750000000     0.829740000000     0.0504102  
H35      H      0.871850000000     0.313430000000     0.886240000000     0.0533212  
H36      H      0.903590000000     0.245510000000     0.966520000000     0.0521239  
H37      H      0.039850000000     0.348620000000     0.810240000000     0.0524855  
H38      H      0.080250000000     0.335220000000     0.907960000000     0.0519245  
H39      H      0.911580000000     0.296560000000     0.984980000000     0.0526167  
H40      H      0.863830000000     0.262080000000     0.868690000000     0.0526918  
H41      H      0.509740000000     0.243150000000     0.788980000000     0.0531721  
H42      H      0.565360000000     0.210400000000     0.712450000000     0.0534277  
H43      H      0.609190000000     0.173410000000     0.763640000000     0.0503222  
H44      H      0.533490000000     0.218010000000     0.867480000000     0.050279   
H45      H      0.618080000000     0.238620000000     0.908780000000     0.052801   
H46      H      0.634780000000     0.149840000000     0.844340000000     0.0523458  
H47      H      0.468760000000     0.186910000000     0.796620000000     0.0523874  
H48      H      0.523600000000     0.154620000000     0.721160000000     0.0518983  
H49      H      0.674000000000     0.205590000000     0.832260000000     0.0537082  
H50      H      0.580050000000     0.182180000000     0.919280000000     0.0518251  
H51      H      0.255920000000     0.725860000000     0.350230000000     0.0532086  
H52      H      0.348550000000     0.769160000000     0.424530000000     0.053474   
H53      H      0.428770000000     0.805660000000     0.371010000000     0.0503245  
H54      H      0.302770000000     0.746710000000     0.270350000000     0.0502723  
H55      H      0.368160000000     0.727460000000     0.230960000000     0.052738   
H56      H      0.475840000000     0.825010000000     0.289100000000     0.0524414  
H57      H      0.269600000000     0.780540000000     0.338520000000     0.0522862  
H58      H      0.360730000000     0.823150000000     0.411650000000     0.0519062  
H59      H      0.461160000000     0.771040000000     0.304890000000     0.0535204  
H60      H      0.384370000000     0.782120000000     0.216340000000     0.0519273  
H61      H      0.655340000000     0.042830000000     0.983910000000     0.0530816  
H62      H      0.681060000000     0.090450000000     0.088230000000     0.0536439  
H63      H      0.673880000000     0.019030000000     0.138430000000     0.0504247  
H64      H      0.640700000000     0.955030000000     0.997720000000     0.0503063  
H65      H      0.579170000000     0.881610000000     0.048630000000     0.0538437  
H66      H      0.653520000000     0.926520000000     0.152730000000     0.0515178  
H67      H      0.710470000000     0.049240000000     0.982480000000     0.0515193  
H68      H      0.735330000000     0.095210000000     0.083720000000     0.0522418  
H69      H      0.602840000000     0.929280000000     0.153270000000     0.0533908  
H70      H      0.630810000000     0.880770000000     0.051760000000     0.0520627  
H71      H      0.319190000000     0.606620000000     0.900050000000     0.0527663  
H72      H      0.327940000000     0.516110000000     0.944150000000     0.053055   
H73      H      0.360460000000     0.546900000000     0.028750000000     0.0502919  
H74      H      0.348550000000     0.669730000000     0.968400000000     0.0503005  
H75      H      0.429810000000     0.714560000000     0.020260000000     0.0534899  
H76      H      0.391580000000     0.612230000000     0.097560000000     0.052045   
H77      H      0.270340000000     0.591060000000     0.931080000000     0.0520282  
H78      H      0.278950000000     0.501830000000     0.974530000000     0.052352   
H79      H      0.438570000000     0.624510000000     0.065000000000     0.0525457  
H80      H      0.382960000000     0.701360000000     0.053350000000     0.0528604  
H81      H      0.591090000000     0.429960000000     0.399820000000     0.0528112  
H82      H      0.688840000000     0.447090000000     0.458380000000     0.052375   
H83      H      0.650310000000     0.373210000000     0.517870000000     0.0502313  
H84      H      0.516660000000     0.350410000000     0.438040000000     0.0503006  
H85      H      0.480380000000     0.323240000000     0.522760000000     0.0525227  
H86      H      0.575260000000     0.293090000000     0.555880000000     0.0527443  
H87      H      0.589270000000     0.384030000000     0.374820000000     0.0530537  
H88      H      0.686970000000     0.401210000000     0.433220000000     0.0524198  
H89      H      0.578040000000     0.339380000000     0.581020000000     0.0525264  
H90      H      0.477810000000     0.276930000000     0.497870000000     0.0529851  
H91      H      0.071730000000     0.641430000000     0.403300000000     0.0531894  
H92      H      0.059360000000     0.736920000000     0.417610000000     0.0530113  
H93      H      0.960340000000     0.700030000000     0.411570000000     0.0504589  
H94      H      0.977940000000     0.570190000000     0.391690000000     0.0503416  
H95      H      0.902820000000     0.553070000000     0.335110000000     0.0526949  
H96      H      0.865920000000     0.627830000000     0.399890000000     0.0526806  
H97      H      0.048640000000     0.622650000000     0.453590000000     0.0521095  
H98      H      0.036430000000     0.717590000000     0.467840000000     0.0521637  
H99      H      0.889380000000     0.647460000000     0.349870000000     0.0523057  
H100     H      0.879280000000     0.533210000000     0.385060000000     0.0531573  
H101     H      0.592000000000     0.710810000000     0.267830000000     0.052511   
H102     H      0.650300000000     0.730190000000     0.170720000000     0.0521069  
H103     H      0.680320000000     0.663510000000     0.170670000000     0.0503701  
H104     H      0.601610000000     0.638840000000     0.305030000000     0.0503623  
H105     H      0.677450000000     0.622240000000     0.324240000000     0.0525021  
H106     H      0.686700000000     0.590010000000     0.206420000000     0.0529264  
H107     H      0.547290000000     0.659920000000     0.249140000000     0.0534286  
H108     H      0.606100000000     0.679700000000     0.150760000000     0.0528009  
H109     H      0.733380000000     0.638550000000     0.226810000000     0.0521212  
H110     H      0.629690000000     0.573180000000     0.306060000000     0.0532499  
H111     H      0.663570000000     0.269890000000     0.082720000000     0.0529259  
H112     H      0.762200000000     0.359980000000     0.036920000000     0.0520244  
H113     H      0.797450000000     0.426680000000     0.104610000000     0.0503002  
H114     H      0.661430000000     0.302590000000     0.167060000000     0.0503333  
H115     H      0.662020000000     0.380760000000     0.202990000000     0.0520594  
H116     H      0.796430000000     0.458510000000     0.188670000000     0.0531347  
H117     H      0.698210000000     0.258750000000     0.116000000000     0.0535281  
H118     H      0.797860000000     0.349690000000     0.069680000000     0.0525282  
H119     H      0.760770000000     0.470840000000     0.158120000000     0.0523318  
H120     H      0.696100000000     0.367020000000     0.234290000000     0.0528533  
N1       N      0.245070000000     0.883830000000     0.532440000000    -0.151394   
N2       N      0.344190000000     0.089890000000     0.603660000000    -0.151371   
N3       N      0.367780000000     0.284000000000     0.693460000000    -0.151707   
N4       N      0.271540000000     0.393880000000     0.772330000000    -0.151453   
N5       N      0.210900000000     0.679520000000     0.583600000000    -0.151174   
N6       N      0.213460000000     0.546820000000     0.731260000000    -0.151128   
N7       N      0.868430000000     0.270570000000     0.933380000000    -0.151344   
N8       N      0.081240000000     0.378110000000     0.862150000000    -0.151217   
N9       N      0.640230000000     0.195360000000     0.889360000000    -0.151074   
N10      N      0.505620000000     0.200700000000     0.741080000000    -0.151229   
N11      N      0.434620000000     0.775150000000     0.247210000000    -0.151146   
N12      N      0.295640000000     0.773040000000     0.395020000000    -0.151229   
N13      N      0.604780000000     0.886180000000     0.109040000000    -0.151486   
N14      N      0.701570000000     0.087590000000     0.027230000000    -0.151564   
N15      N      0.424040000000     0.675630000000     0.071960000000    -0.151056   
N16      N      0.287760000000     0.542100000000     0.923180000000    -0.151495   
N17      N      0.515480000000     0.296390000000     0.553160000000    -0.151088   
N18      N      0.651410000000     0.427650000000     0.402930000000    -0.151068   
N19      N      0.865430000000     0.580370000000     0.359930000000    -0.15147    
N20      N      0.073150000000     0.689690000000     0.442750000000    -0.151629   
N21      N      0.689490000000     0.594450000000     0.271590000000    -0.151293   
N22      N      0.588680000000     0.703990000000     0.202980000000    -0.15141    
N23      N      0.729450000000     0.431160000000     0.210140000000    -0.151474   
N24      N      0.731220000000     0.297100000000     0.063610000000    -0.151067   
O1       O      0.662810000000     0.461550000000     0.341120000000    -0.243827   
O2       O      0.728220000000     0.558890000000     0.260450000000    -0.249149   
O3       O      0.702910000000     0.442350000000     0.270160000000    -0.250985   
O4       O      0.807930000000     0.519710000000     0.331210000000    -0.248209   
O5       O      0.799220000000     0.574750000000     0.340350000000    -0.25121    
O6       O      0.761540000000     0.495910000000     0.244030000000    -0.247069   
O7       O      0.720470000000     0.472460000000     0.375800000000    -0.249371   
O8       O      0.696450000000     0.551070000000     0.318880000000    -0.247777   
O9       O      0.470430000000     0.690400000000     0.126960000000    -0.249887   
O10      O      0.572620000000     0.739140000000     0.153090000000    -0.250497   
O11      O      0.446560000000     0.756640000000     0.183480000000    -0.250432   
O12      O      0.569750000000     0.840810000000     0.162920000000    -0.251374   
O13      O      0.557620000000     0.813360000000     0.102610000000    -0.247959   
O14      O      0.501120000000     0.782450000000     0.226210000000    -0.243288   
O15      O      0.465430000000     0.742920000000     0.099980000000    -0.243411   
O16      O      0.536460000000     0.724870000000     0.209840000000    -0.248001   
O17      O      0.704760000000     0.229560000000     0.036650000000    -0.243384   
O18      O      0.816620000000     0.235670000000     0.983710000000    -0.250303   
O19      O      0.669210000000     0.211550000000     0.953990000000    -0.250245   
O20      O      0.726950000000     0.159960000000     0.033840000000    -0.248077   
O21      O      0.710520000000     0.132380000000     0.973590000000    -0.252083   
O22      O      0.701700000000     0.192040000000     0.909720000000    -0.242934   
O23      O      0.762680000000     0.282620000000     0.008660000000    -0.250017   
O24      O      0.794310000000     0.248220000000     0.926570000000    -0.247044   
O25      O      0.188610000000     0.510230000000     0.791670000000    -0.244232   
O26      O      0.156720000000     0.414880000000     0.872870000000    -0.249318   
O27      O      0.249560000000     0.530830000000     0.863220000000    -0.251381   
O28      O      0.276290000000     0.453980000000     0.802060000000    -0.248121   
O29      O      0.210890000000     0.399560000000     0.790920000000    -0.251208   
O30      O      0.254480000000     0.477780000000     0.888550000000    -0.246781   
O31      O      0.238610000000     0.503770000000     0.758260000000    -0.249612   
O32      O      0.132270000000     0.420980000000     0.814160000000    -0.247181   
O33      O      0.503690000000     0.262660000000     0.615140000000    -0.246661   
O34      O      0.364950000000     0.223620000000     0.666080000000    -0.250287   
O35      O      0.485840000000     0.198420000000     0.673960000000    -0.246379   
O36      O      0.391750000000     0.162200000000     0.593820000000    -0.248367   
O37      O      0.377060000000     0.138670000000     0.655650000000    -0.250225   
O38      O      0.453530000000     0.217570000000     0.718900000000    -0.249024   
O39      O      0.446430000000     0.253960000000     0.581240000000    -0.246811   
O40      O      0.429400000000     0.279500000000     0.676790000000    -0.250951   
O41      O      0.234260000000     0.714960000000     0.522450000000    -0.247487   
O42      O      0.132660000000     0.750590000000     0.469290000000    -0.250411   
O43      O      0.279600000000     0.778870000000     0.461820000000    -0.245976   
O44      O      0.231300000000     0.835470000000     0.480830000000    -0.250125   
O45      O      0.219340000000     0.811780000000     0.542670000000    -0.248735   
O46      O      0.225770000000     0.753610000000     0.418150000000    -0.249119   
O47      O      0.182410000000     0.719050000000     0.554980000000    -0.247068   
O48      O      0.138960000000     0.694070000000     0.461140000000    -0.250339   


