data_structure

_audit_creation_method RASPA-1.0
_audit_creation_date 2023-5-23
_audit_author_name 'Poobodin Mano'

_cell_length_a    26.383
_cell_length_b    26.3788
_cell_length_c    55.9445
_cell_angle_alpha 90.0018
_cell_angle_beta  90.0002
_cell_angle_gamma 89.9997
_cell_volume      38934.7

_symmetry_cell_setting          triclinic
_symmetry_space_group_name_Hall 'P 1'
_symmetry_space_group_name_H-M  'P 1'
_symmetry_Int_Tables_number     1

_symmetry_equiv_pos_as_xyz 'x,y,z'

loop_
_atom_site_label
_atom_site_type_symbol
_atom_site_fract_x
_atom_site_fract_y
_atom_site_fract_z
_atom_site_charge
C1       C      0.511750000000     0.843500000000     0.638920000000     0.339766   
C2       C      0.511670000000     0.657880000000     0.622720000000     0.339749   
C3       C      0.617170000000     0.761200000000     0.585430000000     0.343329   
C4       C      0.617770000000     0.740260000000     0.675880000000     0.343299   
C5       C      0.337460000000     0.343270000000     0.622750000000     0.339815   
C6       C      0.337550000000     0.158110000000     0.639890000000     0.339858   
C7       C      0.231980000000     0.262950000000     0.676630000000     0.343297   
C8       C      0.231270000000     0.238520000000     0.586410000000     0.343493   
C9       C      0.766820000000     0.584680000000     0.372420000000     0.339901   
C10      C      0.581280000000     0.584770000000     0.388920000000     0.339806   
C11      C      0.685100000000     0.690560000000     0.425780000000     0.34342    
C12      C      0.663080000000     0.690420000000     0.335410000000     0.343442   
C13      C      0.081440000000     0.410560000000     0.372990000000     0.339754   
C14      C      0.266650000000     0.410670000000     0.389930000000     0.339752   
C15      C      0.162310000000     0.304950000000     0.426730000000     0.343395   
C16      C      0.185860000000     0.304670000000     0.336430000000     0.343285   
C17      C      0.768030000000     0.917180000000     0.888930000000     0.339854   
C18      C      0.582490000000     0.917310000000     0.872430000000     0.339672   
C19      C      0.686200000000     0.811570000000     0.835400000000     0.343365   
C20      C      0.664160000000     0.811390000000     0.925780000000     0.343214   
C21      C      0.082640000000     0.091300000000     0.889940000000     0.339821   
C22      C      0.267880000000     0.091440000000     0.873040000000     0.339808   
C23      C      0.163470000000     0.197290000000     0.836440000000     0.343336   
C24      C      0.186900000000     0.197070000000     0.926750000000     0.343363   
C25      C      0.011540000000     0.344150000000     0.139890000000     0.339606   
C26      C      0.011590000000     0.158990000000     0.122750000000     0.339572   
C27      C      0.117790000000     0.263680000000     0.086410000000     0.343452   
C28      C      0.117100000000     0.239290000000     0.176620000000     0.343515   
C29      C      0.837390000000     0.844370000000     0.122740000000     0.33974    
C30      C      0.837350000000     0.658770000000     0.138980000000     0.339769   
C31      C      0.731300000000     0.761990000000     0.175900000000     0.343324   
C32      C      0.731940000000     0.740970000000     0.085450000000     0.343299   
C33      C      0.836880000000     0.564940000000     0.143330000000    -0.0280544  
C34      C      0.011810000000     0.437870000000     0.144860000000    -0.0280967  
C35      C      0.931170000000     0.393370000000     0.143760000000    -0.0279143  
C36      C      0.923110000000     0.449020000000     0.144960000000     0.0186716  
C37      C      0.969120000000     0.474380000000     0.145490000000     0.0186086  
C38      C      0.971630000000     0.527480000000     0.145420000000    -0.0651492  
C39      C      0.917520000000     0.609520000000     0.143790000000    -0.0278455  
C40      C      0.877010000000     0.475380000000     0.144500000000    -0.065363   
C41      C      0.925520000000     0.553850000000     0.145020000000     0.0185392  
C42      C      0.879510000000     0.528470000000     0.144670000000     0.01867    
C43      C      0.011910000000     0.065290000000     0.117720000000    -0.0281006  
C44      C      0.836960000000     0.938220000000     0.118450000000    -0.0279937  
C45      C      0.917610000000     0.893660000000     0.118230000000    -0.0278734  
C46      C      0.925620000000     0.949330000000     0.117090000000     0.0185714  
C47      C      0.879600000000     0.974710000000     0.117300000000     0.0186519  
C48      C      0.877100000000     0.027790000000     0.117530000000    -0.0653443  
C49      C      0.931250000000     0.109810000000     0.118570000000    -0.027977   
C50      C      0.971730000000     0.975700000000     0.116910000000    -0.0651628  
C51      C      0.923210000000     0.054160000000     0.117290000000     0.0186665  
C52      C      0.969220000000     0.028790000000     0.116900000000     0.018619   
C53      C      0.219900000000     0.197680000000     0.968390000000    -0.0282317  
C54      C      0.119020000000     0.297310000000     0.044880000000    -0.0281187  
C55      C      0.182890000000     0.236110000000     0.056920000000    -0.0280505  
C56      C      0.183830000000     0.243670000000     0.030630000000     0.0186369  
C57      C      0.147770000000     0.279070000000     0.023800000000     0.0185538  
C58      C      0.137810000000     0.289250000000     0.999660000000    -0.0651167  
C59      C      0.158920000000     0.261780000000     0.956350000000    -0.0280507  
C60      C      0.211080000000     0.215720000000     0.013640000000    -0.0651336  
C61      C      0.166000000000     0.262230000000     0.982680000000     0.0186195  
C62      C      0.201270000000     0.226060000000     0.989500000000     0.0186097  
C63      C      0.631430000000     0.810380000000     0.967470000000    -0.0281445  
C64      C      0.731430000000     0.708770000000     0.043660000000    -0.0282273  
C65      C      0.667470000000     0.769720000000     0.055900000000    -0.0280323  
C66      C      0.666950000000     0.762970000000     0.029550000000     0.0186073  
C67      C      0.703050000000     0.727710000000     0.022610000000     0.0186197  
C68      C      0.713250000000     0.718100000000     0.998440000000    -0.0651958  
C69      C      0.692450000000     0.746500000000     0.955230000000    -0.0280479  
C70      C      0.639900000000     0.791370000000     0.012660000000    -0.0651425  
C71      C      0.685270000000     0.745580000000     0.981550000000     0.0186599  
C72      C      0.649970000000     0.781620000000     0.988490000000     0.0185535  
C73      C      0.533210000000     0.997570000000     0.868110000000    -0.0278573  
C74      C      0.317090000000     0.011150000000     0.868670000000    -0.0279488  
C75      C      0.361590000000     0.091840000000     0.868120000000    -0.0280346  
C76      C      0.398080000000     0.049170000000     0.867090000000     0.0185983  
C77      C      0.372730000000     0.003140000000     0.867310000000     0.0186504  
C78      C      0.399100000000     0.957030000000     0.867340000000    -0.0653479  
C79      C      0.488690000000     0.916890000000     0.868020000000    -0.027967   
C80      C      0.451160000000     0.051700000000     0.867070000000    -0.0652852  
C81      C      0.452180000000     0.959550000000     0.867080000000     0.0186162  
C82      C      0.477540000000     0.005580000000     0.867040000000     0.0185873  
C83      C      0.988910000000     0.091600000000     0.894730000000    -0.0279545  
C84      C      0.861810000000     0.916670000000     0.893460000000    -0.0279626  
C85      C      0.817290000000     0.997360000000     0.893650000000    -0.0278894  
C86      C      0.872950000000     0.005340000000     0.894960000000     0.0186005  
C87      C      0.898300000000     0.959310000000     0.894760000000     0.0186178  
C88      C      0.951380000000     0.956780000000     0.894660000000    -0.0653234  
C89      C      0.033410000000     0.010930000000     0.893900000000    -0.0279974  
C90      C      0.899320000000     0.051450000000     0.895260000000    -0.0652791  
C91      C      0.977760000000     0.002890000000     0.895020000000     0.0187202  
C92      C      0.952400000000     0.048920000000     0.895400000000     0.0185775  
C93      C      0.117640000000     0.205670000000     0.218160000000    -0.0281782  
C94      C      0.219250000000     0.303790000000     0.294860000000    -0.0282363  
C95      C      0.157620000000     0.240210000000     0.306760000000    -0.0280635  
C96      C      0.164820000000     0.239810000000     0.280440000000     0.0186213  
C97      C      0.200460000000     0.275700000000     0.273700000000     0.0186159  
C98      C      0.210390000000     0.286170000000     0.249580000000    -0.0651969  
C99      C      0.182130000000     0.266350000000     0.206250000000    -0.0280306  
C100     C      0.136360000000     0.213250000000     0.263400000000    -0.0651577  
C101     C      0.182860000000     0.258660000000     0.232540000000     0.0186536  
C102     C      0.146450000000     0.223560000000     0.239290000000     0.018592   
C103     C      0.666770000000     0.732740000000     0.205310000000    -0.0280871  
C104     C      0.691040000000     0.755620000000     0.306040000000    -0.0280413  
C105     C      0.630650000000     0.691270000000     0.293650000000    -0.0280853  
C106     C      0.649000000000     0.720340000000     0.272690000000     0.0185576  
C107     C      0.683950000000     0.756670000000     0.279710000000     0.0186417  
C108     C      0.711820000000     0.784430000000     0.262880000000    -0.0651887  
C109     C      0.730150000000     0.794150000000     0.217690000000    -0.0281332  
C110     C      0.639170000000     0.710610000000     0.248500000000    -0.0651368  
C111     C      0.701850000000     0.774830000000     0.238690000000     0.0185882  
C112     C      0.666090000000     0.739310000000     0.231670000000     0.0186098  
C113     C      0.487490000000     0.585270000000     0.393440000000    -0.0279721  
C114     C      0.360390000000     0.410350000000     0.394740000000    -0.0280499  
C115     C      0.315890000000     0.491030000000     0.393890000000    -0.0279376  
C116     C      0.371550000000     0.499070000000     0.395030000000     0.0186507  
C117     C      0.396900000000     0.453030000000     0.395420000000     0.0186072  
C118     C      0.449980000000     0.450500000000     0.395260000000    -0.0652986  
C119     C      0.532010000000     0.504590000000     0.393640000000    -0.027882   
C120     C      0.397920000000     0.545170000000     0.394650000000    -0.0653367  
C121     C      0.476360000000     0.496610000000     0.394930000000     0.018607   
C122     C      0.451000000000     0.542640000000     0.394730000000     0.0186083  
C123     C      0.860630000000     0.585110000000     0.368020000000    -0.0279879  
C124     C      0.987740000000     0.410160000000     0.368030000000    -0.0279749  
C125     C      0.032230000000     0.490850000000     0.368640000000    -0.0279827  
C126     C      0.976590000000     0.498870000000     0.367270000000     0.0187367  
C127     C      0.951240000000     0.452830000000     0.367020000000     0.0185777  
C128     C      0.898160000000     0.450300000000     0.366990000000    -0.0652941  
C129     C      0.816110000000     0.504430000000     0.368050000000    -0.0278954  
C130     C      0.950220000000     0.544980000000     0.367330000000    -0.065367   
C131     C      0.871780000000     0.496420000000     0.366990000000     0.0186085  
C132     C      0.897140000000     0.542450000000     0.367060000000     0.0186298  
C133     C      0.129270000000     0.304400000000     0.468370000000    -0.0281833  
C134     C      0.230030000000     0.204820000000     0.544900000000    -0.0281108  
C135     C      0.166190000000     0.266080000000     0.556910000000    -0.0279725  
C136     C      0.165260000000     0.258470000000     0.530620000000     0.0186077  
C137     C      0.201300000000     0.223050000000     0.523810000000     0.0185521  
C138     C      0.211280000000     0.212820000000     0.499670000000    -0.0651356  
C139     C      0.190210000000     0.240260000000     0.456360000000    -0.0280196  
C140     C      0.138040000000     0.286420000000     0.513620000000    -0.065116   
C141     C      0.183120000000     0.239840000000     0.482680000000     0.0186321  
C142     C      0.147860000000     0.276040000000     0.489490000000     0.0185939  
C143     C      0.130100000000     0.198150000000     0.794870000000    -0.0282567  
C144     C      0.231450000000     0.296540000000     0.718170000000    -0.0281346  
C145     C      0.166970000000     0.235850000000     0.706260000000    -0.0280361  
C146     C      0.166260000000     0.243530000000     0.732550000000     0.0186534  
C147     C      0.202670000000     0.278630000000     0.739300000000     0.0185689  
C148     C      0.212850000000     0.288840000000     0.763420000000    -0.0651558  
C149     C      0.191720000000     0.261740000000     0.806780000000    -0.0280245  
C150     C      0.138840000000     0.215900000000     0.749590000000    -0.0651709  
C151     C      0.184500000000     0.262150000000     0.780460000000     0.018614   
C152     C      0.148870000000     0.226270000000     0.773710000000     0.0186082  
C153     C      0.656810000000     0.755490000000     0.455220000000    -0.0280512  
C154     C      0.681650000000     0.732370000000     0.555890000000    -0.0280281  
C155     C      0.617740000000     0.793340000000     0.543630000000    -0.0282099  
C156     C      0.646130000000     0.774350000000     0.522590000000     0.018604   
C157     C      0.682210000000     0.739090000000     0.529540000000     0.0186307  
C158     C      0.709250000000     0.710640000000     0.512670000000    -0.0651706  
C159     C      0.717780000000     0.691570000000     0.467490000000    -0.0282535  
C160     C      0.635970000000     0.783940000000     0.498420000000    -0.0651605  
C161     C      0.699210000000     0.720360000000     0.488490000000     0.0186145  
C162     C      0.663960000000     0.756440000000     0.481530000000     0.0186254  
C163     C      0.618920000000     0.708080000000     0.717660000000    -0.0282542  
C164     C      0.718600000000     0.810760000000     0.793640000000    -0.0281369  
C165     C      0.658190000000     0.746410000000     0.806010000000    -0.0280661  
C166     C      0.665240000000     0.745420000000     0.779690000000     0.0186474  
C167     C      0.700190000000     0.781740000000     0.772670000000     0.0185711  
C168     C      0.709990000000     0.791520000000     0.748480000000    -0.0651445  
C169     C      0.682310000000     0.769490000000     0.705290000000    -0.0279511  
C170     C      0.637330000000     0.717710000000     0.762850000000    -0.0651782  
C171     C      0.683030000000     0.762870000000     0.731650000000     0.0185696  
C172     C      0.647270000000     0.727350000000     0.738660000000     0.0186285  
C173     C      0.512090000000     0.564030000000     0.618430000000    -0.0280533  
C174     C      0.337140000000     0.436970000000     0.617700000000    -0.0279914  
C175     C      0.417790000000     0.392450000000     0.618560000000    -0.0278928  
C176     C      0.425840000000     0.448090000000     0.617270000000     0.0186455  
C177     C      0.379820000000     0.473460000000     0.616870000000     0.0185795  
C178     C      0.377310000000     0.526560000000     0.616890000000    -0.0652952  
C179     C      0.431440000000     0.608600000000     0.618210000000    -0.0279071  
C180     C      0.471950000000     0.474460000000     0.617520000000    -0.0653472  
C181     C      0.423430000000     0.552920000000     0.617080000000     0.0185992  
C182     C      0.469440000000     0.527540000000     0.617290000000     0.0186426  
C183     C      0.431590000000     0.892760000000     0.643760000000    -0.0278951  
C184     C      0.417940000000     0.108910000000     0.643720000000    -0.0279487  
C185     C      0.337300000000     0.064400000000     0.644880000000    -0.0279673  
C186     C      0.380000000000     0.027890000000     0.645480000000     0.0185552  
C187     C      0.426000000000     0.053250000000     0.644910000000     0.0186697  
C188     C      0.472100000000     0.026890000000     0.644420000000    -0.0653453  
C189     C      0.512230000000     0.937330000000     0.643240000000    -0.0280304  
C190     C      0.377480000000     0.974790000000     0.645410000000    -0.0653011  
C191     C      0.469600000000     0.973810000000     0.644600000000     0.0186467  
C192     C      0.423590000000     0.948430000000     0.644990000000     0.0185986  
Cd1      Cd     0.566150000000     0.750700000000     0.630730000000     0.507535   
Cd2      Cd     0.282990000000     0.250710000000     0.631430000000     0.507592   
Cd3      Cd     0.674060000000     0.639120000000     0.380610000000     0.507583   
Cd4      Cd     0.174050000000     0.356110000000     0.381540000000     0.507596   
Cd5      Cd     0.675250000000     0.862840000000     0.880610000000     0.507559   
Cd6      Cd     0.175250000000     0.145870000000     0.881560000000     0.507584   
Cd7      Cd     0.066080000000     0.251540000000     0.131430000000     0.507546   
Cd8      Cd     0.782940000000     0.751540000000     0.130750000000     0.507573   
H1       H      0.913660000000     0.376880000000     0.127440000000     0.0540896  
H2       H      0.036750000000     0.444680000000     0.129170000000     0.0539565  
H3       H      0.007600000000     0.547230000000     0.145320000000     0.0503421  
H4       H      0.841080000000     0.455640000000     0.143710000000     0.0504623  
H5       H      0.813340000000     0.558340000000     0.127150000000     0.0539345  
H6       H      0.932410000000     0.628630000000     0.160040000000     0.0517647  
H7       H      0.915040000000     0.374140000000     0.159710000000     0.0517531  
H8       H      0.035030000000     0.440460000000     0.161390000000     0.0516977  
H9       H      0.936240000000     0.626150000000     0.127810000000     0.0539546  
H10      H      0.812250000000     0.562110000000     0.159390000000     0.0518065  
H11      H      0.936080000000     0.876950000000     0.134260000000     0.05397    
H12      H      0.813140000000     0.944750000000     0.134550000000     0.0539216  
H13      H      0.841160000000     0.047540000000     0.118210000000     0.050452   
H14      H      0.007700000000     0.955950000000     0.117110000000     0.0503448  
H15      H      0.036580000000     0.058420000000     0.133500000000     0.0539522  
H16      H      0.915380000000     0.129100000000     0.102580000000     0.0517652  
H17      H      0.932760000000     0.874620000000     0.102020000000     0.0517787  
H18      H      0.812590000000     0.941110000000     0.102300000000     0.0517919  
H19      H      0.913490000000     0.126230000000     0.134840000000     0.0540985  
H20      H      0.035400000000     0.062760000000     0.101270000000     0.0516972  
H21      H      0.218820000000     0.249420000000     0.065150000000     0.0520506  
H22      H      0.125420000000     0.338490000000     0.047760000000     0.0509977  
H23      H      0.108200000000     0.315350000000     0.994360000000     0.0504072  
H24      H      0.237080000000     0.186010000000     0.018930000000     0.0504185  
H25      H      0.261110000000     0.204140000000     0.965700000000     0.0510333  
H26      H      0.118490000000     0.256050000000     0.951430000000     0.0539251  
H27      H      0.177050000000     0.195590000000     0.061650000000     0.0539191  
H28      H      0.077670000000     0.290520000000     0.042740000000     0.0542266  
H29      H      0.172410000000     0.297850000000     0.948320000000     0.0520404  
H30      H      0.213090000000     0.156280000000     0.970340000000     0.0542959  
H31      H      0.631360000000     0.756270000000     0.063910000000     0.0520719  
H32      H      0.724970000000     0.667510000000     0.046230000000     0.051088   
H33      H      0.742830000000     0.692040000000     0.993070000000     0.0504461  
H34      H      0.613820000000     0.820920000000     0.018050000000     0.0504226  
H35      H      0.590200000000     0.804070000000     0.964740000000     0.0510646  
H36      H      0.732880000000     0.752420000000     0.950370000000     0.0538359  
H37      H      0.673360000000     0.810070000000     0.060930000000     0.0538392  
H38      H      0.772820000000     0.715610000000     0.041730000000     0.0542622  
H39      H      0.679100000000     0.710530000000     0.947040000000     0.0520925  
H40      H      0.638340000000     0.851730000000     0.969570000000     0.0542064  
H41      H      0.364080000000     0.115680000000     0.851790000000     0.0517533  
H42      H      0.297730000000     0.995540000000     0.852640000000     0.0517639  
H43      H      0.379380000000     0.921070000000     0.867880000000     0.0504577  
H44      H      0.470900000000     0.087670000000     0.867410000000     0.0504407  
H45      H      0.552170000000     0.012990000000     0.851930000000     0.0517319  
H46      H      0.482180000000     0.892730000000     0.884010000000     0.0539339  
H47      H      0.368480000000     0.116190000000     0.884010000000     0.0539396  
H48      H      0.300750000000     0.993120000000     0.884890000000     0.0540376  
H49      H      0.485780000000     0.892860000000     0.851760000000     0.0517371  
H50      H      0.549970000000     0.015790000000     0.884190000000     0.054002   
H51      H      0.800790000000     0.015920000000     0.877600000000     0.0539715  
H52      H      0.868520000000     0.892930000000     0.877350000000     0.0538922  
H53      H      0.971120000000     0.920830000000     0.893990000000     0.0504668  
H54      H      0.879590000000     0.087430000000     0.895040000000     0.0504453  
H55      H      0.982230000000     0.116360000000     0.878960000000     0.0540001  
H56      H      0.052520000000     0.994970000000     0.909920000000     0.0517285  
H57      H      0.798070000000     0.012440000000     0.909830000000     0.0517742  
H58      H      0.864510000000     0.892220000000     0.909590000000     0.0517859  
H59      H      0.050020000000     0.993240000000     0.877650000000     0.0540621  
H60      H      0.986200000000     0.115010000000     0.911190000000     0.0517295  
H61      H      0.170770000000     0.203990000000     0.314770000000     0.0520083  
H62      H      0.260380000000     0.296880000000     0.297600000000     0.050999   
H63      H      0.236690000000     0.315650000000     0.244360000000     0.050452   
H64      H      0.106490000000     0.187400000000     0.268640000000     0.0504172  
H65      H      0.123640000000     0.164450000000     0.215250000000     0.0510505  
H66      H      0.176630000000     0.306940000000     0.201560000000     0.0538925  
H67      H      0.117210000000     0.246260000000     0.311650000000     0.0539298  
H68      H      0.212890000000     0.345260000000     0.292940000000     0.0543198  
H69      H      0.218000000000     0.252800000000     0.198050000000     0.0520693  
H70      H      0.076350000000     0.212880000000     0.220250000000     0.0542043  
H71      H      0.637970000000     0.650000000000     0.291500000000     0.0541646  
H72      H      0.731510000000     0.749990000000     0.310920000000     0.0538339  
H73      H      0.741140000000     0.810710000000     0.268320000000     0.0504533  
H74      H      0.613370000000     0.680870000000     0.243040000000     0.0504171  
H75      H      0.672980000000     0.692460000000     0.200230000000     0.0538732  
H76      H      0.723310000000     0.835360000000     0.215180000000     0.0510244  
H77      H      0.589340000000     0.697160000000     0.296350000000     0.0510688  
H78      H      0.677370000000     0.791420000000     0.314270000000     0.0521231  
H79      H      0.771600000000     0.787700000000     0.219670000000     0.0542606  
H80      H      0.630600000000     0.745970000000     0.197290000000     0.0520622  
H81      H      0.299300000000     0.508710000000     0.377640000000     0.05407    
H82      H      0.367080000000     0.385580000000     0.378970000000     0.0539889  
H83      H      0.469710000000     0.414520000000     0.395050000000     0.0504436  
H84      H      0.378190000000     0.581120000000     0.393970000000     0.0504488  
H85      H      0.480790000000     0.609010000000     0.377330000000     0.0538828  
H86      H      0.551220000000     0.489510000000     0.409830000000     0.0517575  
H87      H      0.296770000000     0.506990000000     0.409910000000     0.0517357  
H88      H      0.363080000000     0.386950000000     0.411200000000     0.051733   
H89      H      0.548520000000     0.486020000000     0.377600000000     0.0539755  
H90      H      0.484790000000     0.609730000000     0.409570000000     0.0517734  
H91      H      0.048560000000     0.508850000000     0.384870000000     0.0540151  
H92      H      0.980830000000     0.385770000000     0.383900000000     0.0539562  
H93      H      0.878430000000     0.414330000000     0.367310000000     0.0504575  
H94      H      0.969940000000     0.580940000000     0.367900000000     0.0504854  
H95      H      0.867130000000     0.609220000000     0.384030000000     0.0539427  
H96      H      0.797160000000     0.489050000000     0.351870000000     0.0517582  
H97      H      0.051610000000     0.506510000000     0.352620000000     0.0517353  
H98      H      0.985270000000     0.386380000000     0.351680000000     0.0517688  
H99      H      0.799350000000     0.486160000000     0.384120000000     0.0540108  
H100     H      0.863550000000     0.609190000000     0.351780000000     0.051757   
H101     H      0.130250000000     0.252790000000     0.565150000000     0.0520264  
H102     H      0.223610000000     0.163650000000     0.547790000000     0.0509937  
H103     H      0.240880000000     0.186700000000     0.494390000000     0.0504285  
H104     H      0.112050000000     0.316150000000     0.518900000000     0.0504048  
H105     H      0.088050000000     0.297950000000     0.465670000000     0.0509999  
H106     H      0.230650000000     0.245960000000     0.451440000000     0.0539332  
H107     H      0.172050000000     0.306610000000     0.561630000000     0.0539022  
H108     H      0.271390000000     0.211590000000     0.542760000000     0.0542277  
H109     H      0.176710000000     0.204180000000     0.448330000000     0.0520172  
H110     H      0.136090000000     0.345800000000     0.470310000000     0.0542858  
H111     H      0.131090000000     0.249400000000     0.698070000000     0.0520606  
H112     H      0.225430000000     0.337770000000     0.715270000000     0.0510322  
H113     H      0.242710000000     0.314690000000     0.768660000000     0.0504357  
H114     H      0.112540000000     0.186410000000     0.744370000000     0.0504297  
H115     H      0.088970000000     0.205030000000     0.797610000000     0.0509992  
H116     H      0.232130000000     0.255700000000     0.811660000000     0.0539277  
H117     H      0.172480000000     0.195270000000     0.701560000000     0.0538997  
H118     H      0.272750000000     0.289360000000     0.720250000000     0.0542073  
H119     H      0.178570000000     0.297960000000     0.814790000000     0.0520038  
H120     H      0.136490000000     0.156690000000     0.792940000000     0.0543172  
H121     H      0.576350000000     0.786520000000     0.541690000000     0.0542591  
H122     H      0.675730000000     0.692030000000     0.560940000000     0.053845   
H123     H      0.735320000000     0.681090000000     0.518070000000     0.0504364  
H124     H      0.606410000000     0.810010000000     0.493030000000     0.0504286  
H125     H      0.616380000000     0.749580000000     0.450340000000     0.0538371  
H126     H      0.759010000000     0.697860000000     0.464770000000     0.0511061  
H127     H      0.624220000000     0.834600000000     0.546180000000     0.0510771  
H128     H      0.717760000000     0.745810000000     0.563910000000     0.0520761  
H129     H      0.710840000000     0.650230000000     0.469590000000     0.054234   
H130     H      0.670190000000     0.791440000000     0.447020000000     0.0521033  
H131     H      0.671860000000     0.710590000000     0.814220000000     0.0521242  
H132     H      0.759900000000     0.804830000000     0.796320000000     0.05109    
H133     H      0.735800000000     0.821250000000     0.743030000000     0.0504342  
H134     H      0.608000000000     0.691430000000     0.768290000000     0.0504371  
H135     H      0.625730000000     0.666870000000     0.715130000000     0.0510632  
H136     H      0.676110000000     0.809780000000     0.700230000000     0.053839   
H137     H      0.617730000000     0.752040000000     0.810910000000     0.0538348  
H138     H      0.711300000000     0.852030000000     0.791510000000     0.0541885  
H139     H      0.718480000000     0.756260000000     0.697250000000     0.0520385  
H140     H      0.577490000000     0.714560000000     0.719650000000     0.0542933  
H141     H      0.435560000000     0.376040000000     0.634830000000     0.054067   
H142     H      0.312470000000     0.443850000000     0.633490000000     0.0539343  
H143     H      0.341350000000     0.546310000000     0.617100000000     0.0504425  
H144     H      0.507890000000     0.454720000000     0.618200000000     0.0504584  
H145     H      0.535910000000     0.557510000000     0.634530000000     0.0539389  
H146     H      0.416290000000     0.627620000000     0.602000000000     0.0517776  
H147     H      0.433650000000     0.373130000000     0.602570000000     0.0517333  
H148     H      0.313640000000     0.439480000000     0.601260000000     0.0517032  
H149     H      0.412980000000     0.625320000000     0.634240000000     0.0539619  
H150     H      0.536440000000     0.561120000000     0.602280000000     0.0518079  
H151     H      0.314140000000     0.061820000000     0.661420000000     0.0516948  
H152     H      0.434110000000     0.128140000000     0.659660000000     0.0517501  
H153     H      0.508030000000     0.046640000000     0.643610000000     0.0504472  
H154     H      0.341520000000     0.955050000000     0.645340000000     0.0504547  
H155     H      0.416740000000     0.873650000000     0.660020000000     0.0517646  
H156     H      0.535720000000     0.943910000000     0.627040000000     0.0539191  
H157     H      0.312310000000     0.057590000000     0.629200000000     0.0539476  
H158     H      0.435400000000     0.125390000000     0.627390000000     0.054095   
H159     H      0.536910000000     0.940180000000     0.659280000000     0.0518164  
H160     H      0.412830000000     0.876110000000     0.627800000000     0.0539451  
N1       N      0.862280000000     0.614320000000     0.142350000000    -0.15058    
N2       N      0.986480000000     0.388530000000     0.143260000000    -0.15046    
N3       N      0.986560000000     0.114630000000     0.119270000000    -0.150446   
N4       N      0.862350000000     0.888840000000     0.119470000000    -0.150565   
N5       N      0.190670000000     0.219300000000     0.948560000000    -0.151265   
N6       N      0.140300000000     0.267740000000     0.064670000000    -0.151256   
N7       N      0.660640000000     0.789040000000     0.947570000000    -0.151277   
N8       N      0.709840000000     0.737720000000     0.063590000000    -0.15125    
N9       N      0.538050000000     0.942280000000     0.869140000000    -0.150597   
N10      N      0.312260000000     0.066450000000     0.869590000000    -0.150585   
N11      N      0.038260000000     0.066250000000     0.893270000000    -0.150636   
N12      N      0.812460000000     0.942090000000     0.892340000000    -0.150636   
N13      N      0.139320000000     0.235110000000     0.198420000000    -0.151272   
N14      N      0.189690000000     0.282390000000     0.314630000000    -0.151238   
N15      N      0.708940000000     0.765110000000     0.197710000000    -0.151222   
N16      N      0.659560000000     0.712760000000     0.313610000000    -0.151258   
N17      N      0.536840000000     0.559850000000     0.392320000000    -0.150595   
N18      N      0.311040000000     0.435710000000     0.393270000000    -0.15056    
N19      N      0.811270000000     0.559710000000     0.369120000000    -0.150585   
N20      N      0.037060000000     0.435550000000     0.369520000000    -0.150596   
N21      N      0.158500000000     0.282750000000     0.448550000000    -0.151245   
N22      N      0.208760000000     0.234440000000     0.564680000000    -0.151341   
N23      N      0.159660000000     0.219560000000     0.814640000000    -0.151262   
N24      N      0.209760000000     0.267110000000     0.698430000000    -0.151248   
N25      N      0.688610000000     0.712920000000     0.447570000000    -0.151281   
N26      N      0.639290000000     0.764400000000     0.563570000000    -0.151229   
N27      N      0.640140000000     0.737150000000     0.697680000000    -0.151268   
N28      N      0.689700000000     0.789240000000     0.813590000000    -0.151195   
N29      N      0.486700000000     0.613420000000     0.619450000000    -0.150569   
N30      N      0.362490000000     0.387620000000     0.619270000000    -0.1506     
N31      N      0.486830000000     0.887950000000     0.642290000000    -0.150598   
N32      N      0.362620000000     0.113740000000     0.643250000000    -0.150593   
O1       O      0.488380000000     0.699720000000     0.624680000000    -0.242313   
O2       O      0.636320000000     0.766850000000     0.659190000000    -0.246619   
O3       O      0.488440000000     0.801650000000     0.637050000000    -0.242306   
O4       O      0.636050000000     0.734770000000     0.602090000000    -0.246683   
O5       O      0.575810000000     0.783410000000     0.589890000000    -0.253001   
O6       O      0.559550000000     0.842130000000     0.637240000000    -0.248491   
O7       O      0.559500000000     0.659260000000     0.624220000000    -0.248446   
O8       O      0.576490000000     0.717830000000     0.671500000000    -0.253002   
O9       O      0.360810000000     0.199790000000     0.637240000000    -0.242212   
O10      O      0.212670000000     0.265580000000     0.602910000000    -0.246658   
O11      O      0.360750000000     0.301580000000     0.625320000000    -0.242189   
O12      O      0.273530000000     0.284700000000     0.672040000000    -0.253129   
O13      O      0.212980000000     0.236100000000     0.660150000000    -0.246604   
O14      O      0.289590000000     0.341850000000     0.623900000000    -0.248595   
O15      O      0.289660000000     0.159550000000     0.638930000000    -0.248569   
O16      O      0.272730000000     0.216520000000     0.590910000000    -0.253195   
O17      O      0.623060000000     0.561430000000     0.386870000000    -0.242354   
O18      O      0.689420000000     0.709330000000     0.352080000000    -0.246792   
O19      O      0.725030000000     0.561370000000     0.374520000000    -0.242337   
O20      O      0.707220000000     0.649130000000     0.421350000000    -0.253037   
O21      O      0.658490000000     0.709290000000     0.409150000000    -0.246659   
O22      O      0.765410000000     0.632520000000     0.373840000000    -0.248614   
O23      O      0.582690000000     0.632600000000     0.387360000000    -0.248548   
O24      O      0.641200000000     0.648830000000     0.339800000000    -0.25298    
O25      O      0.224940000000     0.433950000000     0.387430000000    -0.242193   
O26      O      0.208100000000     0.345970000000     0.341000000000    -0.253139   
O27      O      0.082860000000     0.362690000000     0.374240000000    -0.248529   
O28      O      0.189080000000     0.286050000000     0.410200000000    -0.246686   
O29      O      0.140360000000     0.346420000000     0.422190000000    -0.253157   
O30      O      0.123140000000     0.433870000000     0.375440000000    -0.242261   
O31      O      0.265230000000     0.362780000000     0.388840000000    -0.248474   
O32      O      0.158780000000     0.286040000000     0.352920000000    -0.246591   
O33      O      0.624290000000     0.940610000000     0.874550000000    -0.242222   
O34      O      0.642030000000     0.852810000000     0.921340000000    -0.252975   
O35      O      0.726250000000     0.940520000000     0.886870000000    -0.242364   
O36      O      0.708090000000     0.853140000000     0.839800000000    -0.25303    
O37      O      0.659860000000     0.792640000000     0.852070000000    -0.246718   
O38      O      0.766620000000     0.869350000000     0.887370000000    -0.248556   
O39      O      0.583900000000     0.869450000000     0.873830000000    -0.24845    
O40      O      0.690810000000     0.792670000000     0.909150000000    -0.246507   
O41      O      0.226170000000     0.068120000000     0.875460000000    -0.242253   
O42      O      0.160150000000     0.215950000000     0.910200000000    -0.2466     
O43      O      0.124360000000     0.068020000000     0.887450000000    -0.242171   
O44      O      0.190540000000     0.215930000000     0.852930000000    -0.246611   
O45      O      0.141230000000     0.155990000000     0.841010000000    -0.253147   
O46      O      0.084060000000     0.139180000000     0.888840000000    -0.248556   
O47      O      0.266460000000     0.139300000000     0.874310000000    -0.248562   
O48      O      0.208870000000     0.155610000000     0.922220000000    -0.25316    
O49      O      0.988300000000     0.200680000000     0.125320000000    -0.242048   
O50      O      0.136100000000     0.266140000000     0.160150000000    -0.246737   
O51      O      0.988270000000     0.302470000000     0.137260000000    -0.242089   
O52      O      0.136400000000     0.236660000000     0.102920000000    -0.246678   
O53      O      0.076320000000     0.285670000000     0.090890000000    -0.253206   
O54      O      0.059430000000     0.342710000000     0.138900000000    -0.248512   
O55      O      0.059460000000     0.160400000000     0.123910000000    -0.24854    
O56      O      0.075550000000     0.217550000000     0.172030000000    -0.253236   
O57      O      0.860660000000     0.700610000000     0.137070000000    -0.242304   
O58      O      0.713050000000     0.767410000000     0.102100000000    -0.246718   
O59      O      0.860690000000     0.802540000000     0.124710000000    -0.242325   
O60      O      0.772580000000     0.784420000000     0.171520000000    -0.252979   
O61      O      0.712760000000     0.735410000000     0.159210000000    -0.246667   
O62      O      0.789560000000     0.842980000000     0.124240000000    -0.248445   
O63      O      0.789550000000     0.660130000000     0.137310000000    -0.248506   
O64      O      0.773310000000     0.718770000000     0.089930000000    -0.252949   


