data_structure

_audit_creation_method RASPA-1.0
_audit_creation_date 2023-6-5
_audit_author_name 'Poobodin Mano'

_cell_length_a    44.3755
_cell_length_b    44.3918
_cell_length_c    23.4163
_cell_angle_alpha 90.0427
_cell_angle_beta  89.8781
_cell_angle_gamma 90
_cell_volume      46127.8

_symmetry_cell_setting          triclinic
_symmetry_space_group_name_Hall 'P 1'
_symmetry_space_group_name_H-M  'P 1'
_symmetry_Int_Tables_number     1

_symmetry_equiv_pos_as_xyz 'x,y,z'

loop_
_atom_site_label
_atom_site_type_symbol
_atom_site_fract_x
_atom_site_fract_y
_atom_site_fract_z
_atom_site_charge
C1       C      0.298590000000     0.297630000000     0.080950000000     0.342198   
C2       C      0.392750000000     0.321700000000     0.986340000000     0.342028   
C3       C      0.298620000000     0.297660000000     0.892290000000     0.342197   
C4       C      0.322550000000     0.391790000000     0.986840000000     0.342117   
C5       C      0.322530000000     0.605980000000     0.986730000000     0.342022   
C6       C      0.298540000000     0.700160000000     0.080830000000     0.342133   
C7       C      0.392720000000     0.676080000000     0.986130000000     0.342154   
C8       C      0.298600000000     0.700100000000     0.892160000000     0.342207   
C9       C      0.701200000000     0.297650000000     0.892730000000     0.342102   
C10      C      0.607030000000     0.321730000000     0.986730000000     0.342185   
C11      C      0.701150000000     0.297710000000     0.081410000000     0.342037   
C12      C      0.677210000000     0.391830000000     0.987590000000     0.34203    
C13      C      0.677190000000     0.606020000000     0.987500000000     0.342014   
C14      C      0.701160000000     0.700190000000     0.892670000000     0.341989   
C15      C      0.607000000000     0.676100000000     0.986540000000     0.341954   
C16      C      0.701130000000     0.700150000000     0.081340000000     0.342054   
C17      C      0.798570000000     0.200200000000     0.580740000000     0.342219   
C18      C      0.822550000000     0.106020000000     0.485940000000     0.342305   
C19      C      0.798640000000     0.200130000000     0.392060000000     0.342257   
C20      C      0.892750000000     0.176100000000     0.486770000000     0.342019   
C21      C      0.798560000000     0.797670000000     0.581020000000     0.342203   
C22      C      0.892720000000     0.821740000000     0.487130000000     0.342115   
C23      C      0.798590000000     0.797690000000     0.392350000000     0.342218   
C24      C      0.822540000000     0.891830000000     0.486140000000     0.342204   
C25      C      0.107000000000     0.821700000000     0.487540000000     0.342245   
C26      C      0.201180000000     0.797610000000     0.392830000000     0.341954   
C27      C      0.177190000000     0.891790000000     0.486910000000     0.342222   
C28      C      0.201110000000     0.797680000000     0.581500000000     0.342252   
C29      C      0.201200000000     0.200140000000     0.392610000000     0.342078   
C30      C      0.177220000000     0.105980000000     0.486730000000     0.342015   
C31      C      0.201160000000     0.200120000000     0.581280000000     0.342021   
C32      C      0.107030000000     0.176080000000     0.487210000000     0.342228   
C33      C      0.179330000000     0.940670000000     0.434820000000    -0.0277527  
C34      C      0.181020000000     0.057110000000     0.538490000000    -0.0278112  
C35      C      0.179360000000     0.057040000000     0.434710000000    -0.02787    
C36      C      0.180450000000     0.025790000000     0.457000000000     0.0185951  
C37      C      0.181400000000     0.025830000000     0.516180000000     0.0185409  
C38      C      0.181840000000     0.998920000000     0.547450000000    -0.0652797  
C39      C      0.181000000000     0.940730000000     0.538590000000    -0.0278611  
C40      C      0.179890000000     0.998850000000     0.425780000000    -0.0653059  
C41      C      0.181380000000     0.971980000000     0.516220000000     0.0186177  
C42      C      0.180430000000     0.971950000000     0.457050000000     0.0185712  
C43      C      0.941560000000     0.819840000000     0.539310000000    -0.0278426  
C44      C      0.058160000000     0.817730000000     0.435780000000    -0.0277264  
C45      C      0.057980000000     0.819810000000     0.539540000000    -0.0278405  
C46      C      0.026740000000     0.818640000000     0.517230000000     0.018521   
C47      C      0.026840000000     0.817450000000     0.458070000000     0.0183321  
C48      C      0.999960000000     0.816890000000     0.426770000000    -0.0648619  
C49      C      0.941730000000     0.817760000000     0.435550000000    -0.0277643  
C50      C      0.999760000000     0.819320000000     0.548420000000    -0.0652036  
C51      C      0.972980000000     0.817480000000     0.457960000000     0.0184916  
C52      C      0.972880000000     0.818660000000     0.517130000000     0.0186371  
C53      C      0.820700000000     0.940700000000     0.433990000000    -0.0277745  
C54      C      0.818440000000     0.057150000000     0.537630000000    -0.0278599  
C55      C      0.820700000000     0.057080000000     0.433870000000    -0.0277906  
C56      C      0.819470000000     0.025830000000     0.456140000000     0.0185212  
C57      C      0.818190000000     0.025870000000     0.515300000000     0.018615   
C58      C      0.817560000000     0.998970000000     0.546570000000    -0.0653089  
C59      C      0.818440000000     0.940770000000     0.537740000000    -0.0278491  
C60      C      0.820210000000     0.998880000000     0.424930000000    -0.0652483  
C61      C      0.818190000000     0.972020000000     0.515360000000     0.0186209  
C62      C      0.819480000000     0.971980000000     0.456200000000     0.0185707  
C63      C      0.941590000000     0.178100000000     0.538940000000    -0.0277977  
C64      C      0.058190000000     0.179950000000     0.435420000000    -0.0276814  
C65      C      0.058010000000     0.178100000000     0.539180000000    -0.0277307  
C66      C      0.026770000000     0.179230000000     0.516870000000     0.0184711  
C67      C      0.026870000000     0.180280000000     0.457690000000     0.0183401  
C68      C      0.999990000000     0.180790000000     0.426390000000    -0.0648996  
C69      C      0.941770000000     0.179950000000     0.435170000000    -0.0278454  
C70      C      0.999790000000     0.178620000000     0.548050000000    -0.0651509  
C71      C      0.973010000000     0.180280000000     0.457580000000     0.0185481  
C72      C      0.972900000000     0.179220000000     0.516760000000     0.0185886  
C73      C      0.703780000000     0.741550000000     0.820960000000    -0.0278006  
C74      C      0.795950000000     0.756310000000     0.652730000000    -0.027795   
C75      C      0.756660000000     0.794480000000     0.651770000000    -0.027897   
C76      C      0.750890000000     0.772060000000     0.697440000000     0.0186847  
C77      C      0.773300000000     0.750290000000     0.697990000000     0.0186523  
C78      C      0.772890000000     0.726550000000     0.737410000000    -0.0653011  
C79      C      0.743070000000     0.703380000000     0.821920000000    -0.0279254  
C80      C      0.726830000000     0.771310000000     0.736290000000    -0.0652936  
C81      C      0.748830000000     0.725800000000     0.776260000000     0.0187029  
C82      C      0.726430000000     0.747570000000     0.775710000000     0.0186495  
C83      C      0.795450000000     0.755800000000     0.321720000000    -0.0279216  
C84      C      0.704260000000     0.742030000000     0.151980000000    -0.0277618  
C85      C      0.742500000000     0.702810000000     0.152940000000    -0.0278184  
C86      C      0.748510000000     0.725480000000     0.198090000000     0.01869    
C87      C      0.726700000000     0.747840000000     0.197540000000     0.0186258  
C88      C      0.727440000000     0.771910000000     0.236290000000    -0.0652607  
C89      C      0.757200000000     0.795020000000     0.320760000000    -0.0277649  
C90      C      0.772270000000     0.725930000000     0.237410000000    -0.0653141  
C91      C      0.751200000000     0.772360000000     0.275610000000     0.0186382  
C92      C      0.773000000000     0.750000000000     0.276160000000     0.0187124  
C93      C      0.795990000000     0.241530000000     0.652660000000    -0.027826   
C94      C      0.703780000000     0.256340000000     0.820810000000    -0.0277604  
C95      C      0.743150000000     0.294420000000     0.822070000000    -0.0278589  
C96      C      0.748890000000     0.272020000000     0.776280000000     0.0187069  
C97      C      0.726440000000     0.250310000000     0.775550000000     0.0186291  
C98      C      0.726800000000     0.226610000000     0.735980000000    -0.0653008  
C99      C      0.756620000000     0.203450000000     0.651380000000    -0.0277883  
C100     C      0.772970000000     0.271260000000     0.737470000000    -0.0653947  
C101     C      0.750880000000     0.225840000000     0.697180000000     0.0186348  
C102     C      0.773330000000     0.247560000000     0.697900000000     0.0187163  
C103     C      0.742480000000     0.295080000000     0.153090000000    -0.0277292  
C104     C      0.757310000000     0.202750000000     0.320360000000    -0.0278888  
C105     C      0.795460000000     0.242060000000     0.321650000000    -0.0278279  
C106     C      0.773030000000     0.247860000000     0.276080000000     0.0186696  
C107     C      0.751280000000     0.225440000000     0.275350000000     0.0186899  
C108     C      0.727530000000     0.225870000000     0.235980000000    -0.065313   
C109     C      0.704340000000     0.255780000000     0.151820000000    -0.0277524  
C110     C      0.772260000000     0.271960000000     0.237480000000    -0.0653132  
C111     C      0.726760000000     0.249980000000     0.197380000000     0.018653   
C112     C      0.748520000000     0.272390000000     0.198110000000     0.0186524  
C113     C      0.681310000000     0.440710000000     0.935920000000    -0.0278412  
C114     C      0.679040000000     0.557140000000     0.039620000000    -0.0278215  
C115     C      0.681300000000     0.557090000000     0.935870000000    -0.0278133  
C116     C      0.681560000000     0.525830000000     0.958240000000     0.0184911  
C117     C      0.680270000000     0.525860000000     0.017400000000     0.0187121  
C118     C      0.679540000000     0.498960000000     0.048650000000    -0.0653804  
C119     C      0.679050000000     0.440760000000     0.039670000000    -0.0277799  
C120     C      0.682180000000     0.498890000000     0.927000000000    -0.0652865  
C121     C      0.680270000000     0.472020000000     0.017420000000     0.0186697  
C122     C      0.681550000000     0.471990000000     0.958260000000     0.01853    
C123     C      0.296110000000     0.741330000000     0.820170000000    -0.0277892  
C124     C      0.203600000000     0.756450000000     0.653490000000    -0.0278867  
C125     C      0.243140000000     0.794350000000     0.651620000000    -0.0277642  
C126     C      0.248880000000     0.771960000000     0.697320000000     0.0186169  
C127     C      0.226330000000     0.750350000000     0.698390000000     0.0187084  
C128     C      0.226680000000     0.726670000000     0.737930000000    -0.0653578  
C129     C      0.256570000000     0.703420000000     0.822040000000    -0.0279843  
C130     C      0.273040000000     0.771110000000     0.735740000000    -0.0652774  
C131     C      0.250840000000     0.725820000000     0.776350000000     0.018737   
C132     C      0.273390000000     0.747430000000     0.775280000000     0.0186322  
C133     C      0.204450000000     0.755600000000     0.322470000000    -0.02784    
C134     C      0.295270000000     0.742170000000     0.151200000000    -0.0278618  
C135     C      0.257290000000     0.702710000000     0.153040000000    -0.0277581  
C136     C      0.251250000000     0.725400000000     0.198170000000     0.0186519  
C137     C      0.272910000000     0.747910000000     0.197110000000     0.0186827  
C138     C      0.272120000000     0.772020000000     0.235750000000    -0.065285   
C139     C      0.242430000000     0.795070000000     0.320620000000    -0.0278612  
C140     C      0.227600000000     0.725750000000     0.237920000000    -0.0653059  
C141     C      0.248470000000     0.772370000000     0.275500000000     0.0186778  
C142     C      0.226810000000     0.749870000000     0.276550000000     0.0186687  
C143     C      0.441740000000     0.677990000000     0.934130000000    -0.0278306  
C144     C      0.557980000000     0.680060000000     0.038120000000    -0.027818   
C145     C      0.558160000000     0.678000000000     0.934360000000    -0.0277651  
C146     C      0.526840000000     0.679170000000     0.956540000000     0.01846    
C147     C      0.526740000000     0.680350000000     0.015710000000     0.0187387  
C148     C      0.499760000000     0.680910000000     0.046910000000    -0.065409   
C149     C      0.441560000000     0.680040000000     0.037890000000    -0.0277782  
C150     C      0.499960000000     0.678500000000     0.925250000000    -0.0652844  
C151     C      0.472880000000     0.680330000000     0.015610000000     0.0186962  
C152     C      0.472980000000     0.679160000000     0.956440000000     0.0185059  
C153     C      0.296170000000     0.256480000000     0.820080000000    -0.027783   
C154     C      0.203610000000     0.241300000000     0.653480000000    -0.0277729  
C155     C      0.243230000000     0.203490000000     0.651300000000    -0.0278202  
C156     C      0.248940000000     0.225850000000     0.697120000000     0.0186754  
C157     C      0.226350000000     0.247410000000     0.698360000000     0.0186386  
C158     C      0.226660000000     0.271050000000     0.738060000000    -0.0652759  
C159     C      0.256550000000     0.294290000000     0.822260000000    -0.027799   
C160     C      0.273120000000     0.226720000000     0.735500000000    -0.065338   
C161     C      0.250840000000     0.271930000000     0.776440000000     0.0186378  
C162     C      0.273430000000     0.250360000000     0.775200000000     0.0186667  
C163     C      0.204510000000     0.242200000000     0.322470000000    -0.0278275  
C164     C      0.295270000000     0.255570000000     0.151100000000    -0.0278745  
C165     C      0.257380000000     0.295130000000     0.153260000000    -0.0279095  
C166     C      0.251320000000     0.272410000000     0.198260000000     0.0186991  
C167     C      0.272920000000     0.249850000000     0.197020000000     0.0186808  
C168     C      0.272100000000     0.225700000000     0.235510000000    -0.065307   
C169     C      0.242400000000     0.202640000000     0.320300000000    -0.0279048  
C170     C      0.227680000000     0.272080000000     0.238050000000    -0.0653367  
C171     C      0.248460000000     0.225370000000     0.275300000000     0.0186902  
C172     C      0.226860000000     0.247920000000     0.276540000000     0.0186583  
C173     C      0.441590000000     0.317840000000     0.038120000000    -0.0278358  
C174     C      0.558180000000     0.319730000000     0.934570000000    -0.0278419  
C175     C      0.558020000000     0.317850000000     0.038340000000    -0.0278188  
C176     C      0.526770000000     0.317520000000     0.015930000000     0.0187149  
C177     C      0.526870000000     0.318590000000     0.956760000000     0.0184946  
C178     C      0.499990000000     0.319200000000     0.925470000000    -0.0652683  
C179     C      0.441770000000     0.319710000000     0.934350000000    -0.0278115  
C180     C      0.499790000000     0.317010000000     0.047130000000    -0.0653854  
C181     C      0.473000000000     0.318590000000     0.956660000000     0.0184867  
C182     C      0.472910000000     0.317520000000     0.015830000000     0.0187134  
C183     C      0.320410000000     0.440730000000     0.038880000000    -0.0279002  
C184     C      0.318720000000     0.557050000000     0.935040000000    -0.027802   
C185     C      0.320390000000     0.557100000000     0.038810000000    -0.0278078  
C186     C      0.319290000000     0.525830000000     0.016570000000     0.0187142  
C187     C      0.318340000000     0.525800000000     0.957400000000     0.0184865  
C188     C      0.317900000000     0.498860000000     0.926160000000    -0.0652464  
C189     C      0.318740000000     0.440670000000     0.935100000000    -0.0278066  
C190     C      0.319860000000     0.498920000000     0.047830000000    -0.0654212  
C191     C      0.318360000000     0.471950000000     0.957430000000     0.0184567  
C192     C      0.319310000000     0.471980000000     0.016600000000     0.0187528  
Cd1      Cd     0.328050000000     0.327120000000     0.986580000000     0.507382   
Cd2      Cd     0.328020000000     0.670660000000     0.986410000000     0.507361   
Cd3      Cd     0.671730000000     0.327160000000     0.987160000000     0.507355   
Cd4      Cd     0.671700000000     0.670690000000     0.987040000000     0.507351   
Cd5      Cd     0.828050000000     0.170690000000     0.486330000000     0.507439   
Cd6      Cd     0.828020000000     0.827160000000     0.486640000000     0.507472   
Cd7      Cd     0.171700000000     0.827120000000     0.487250000000     0.507412   
Cd8      Cd     0.171730000000     0.170660000000     0.486980000000     0.507427   
H1       H      0.158640000000     0.060950000000     0.409180000000     0.0524735  
H2       H      0.161160000000     0.061050000000     0.566520000000     0.0525114  
H3       H      0.182290000000     0.998950000000     0.593670000000     0.0504161  
H4       H      0.178850000000     0.998820000000     0.379600000000     0.0504129  
H5       H      0.158610000000     0.936730000000     0.409290000000     0.0524473  
H6       H      0.201800000000     0.935730000000     0.563170000000     0.0529774  
H7       H      0.199330000000     0.062030000000     0.407620000000     0.0529692  
H8       H      0.201820000000     0.062130000000     0.563070000000     0.0529393  
H9       H      0.161140000000     0.936820000000     0.566620000000     0.0525455  
H10      H      0.199310000000     0.935640000000     0.407720000000     0.0529376  
H11      H      0.062940000000     0.799950000000     0.566820000000     0.0529333  
H12      H      0.063200000000     0.796840000000     0.411390000000     0.0529292  
H13      H      0.000040000000     0.816260000000     0.380550000000     0.0502015  
H14      H      0.999680000000     0.820540000000     0.594590000000     0.0504281  
H15      H      0.936510000000     0.799990000000     0.566580000000     0.0529713  
H16      H      0.937850000000     0.837500000000     0.407340000000     0.0525541  
H17      H      0.061880000000     0.840620000000     0.564880000000     0.0524504  
H18      H      0.062140000000     0.837470000000     0.407590000000     0.0525067  
H19      H      0.936770000000     0.796870000000     0.411140000000     0.05299    
H20      H      0.937590000000     0.840660000000     0.564630000000     0.0524758  
H21      H      0.800880000000     0.062070000000     0.406530000000     0.052941   
H22      H      0.797500000000     0.062170000000     0.561940000000     0.0529764  
H23      H      0.816850000000     0.998990000000     0.592780000000     0.0504397  
H24      H      0.821510000000     0.998850000000     0.378760000000     0.0504064  
H25      H      0.800880000000     0.935670000000     0.406650000000     0.0529398  
H26      H      0.838140000000     0.936860000000     0.566020000000     0.0525615  
H27      H      0.841570000000     0.060980000000     0.408600000000     0.0524627  
H28      H      0.838140000000     0.061080000000     0.565900000000     0.0525579  
H29      H      0.797500000000     0.935780000000     0.562060000000     0.0529856  
H30      H      0.841570000000     0.936760000000     0.408730000000     0.0524664  
H31      H      0.061900000000     0.157340000000     0.564640000000     0.0524122  
H32      H      0.062160000000     0.160140000000     0.407330000000     0.0524757  
H33      H      0.000070000000     0.181320000000     0.380170000000     0.0502103  
H34      H      0.999710000000     0.177500000000     0.594230000000     0.0504066  
H35      H      0.937610000000     0.157340000000     0.564370000000     0.0524703  
H36      H      0.936810000000     0.200790000000     0.410660000000     0.053004   
H37      H      0.062970000000     0.198020000000     0.566370000000     0.0529065  
H38      H      0.063240000000     0.200790000000     0.410920000000     0.0529071  
H39      H      0.937880000000     0.160150000000     0.407070000000     0.0525759  
H40      H      0.936540000000     0.198020000000     0.566110000000     0.0529567  
H41      H      0.759500000000     0.817470000000     0.669800000000     0.0533219  
H42      H      0.818700000000     0.759940000000     0.671250000000     0.053262   
H43      H      0.790380000000     0.709550000000     0.737840000000     0.0504926  
H44      H      0.709340000000     0.788310000000     0.735860000000     0.0504865  
H45      H      0.702560000000     0.760480000000     0.851980000000     0.0523798  
H46      H      0.740230000000     0.680390000000     0.803900000000     0.053335   
H47      H      0.737970000000     0.794910000000     0.620280000000     0.0523949  
H48      H      0.797160000000     0.737380000000     0.621730000000     0.0523925  
H49      H      0.761760000000     0.702960000000     0.853420000000     0.0523998  
H50      H      0.681030000000     0.737920000000     0.802450000000     0.0532596  
H51      H      0.738900000000     0.680070000000     0.171560000000     0.0532563  
H52      H      0.681270000000     0.739170000000     0.170110000000     0.0532753  
H53      H      0.710410000000     0.789370000000     0.235860000000     0.0504859  
H54      H      0.789300000000     0.708470000000     0.237840000000     0.0505062  
H55      H      0.795910000000     0.737120000000     0.353280000000     0.0524112  
H56      H      0.760810000000     0.817770000000     0.302140000000     0.0532402  
H57      H      0.761430000000     0.701610000000     0.121870000000     0.0524158  
H58      H      0.703800000000     0.760720000000     0.120420000000     0.0523665  
H59      H      0.738270000000     0.796230000000     0.351830000000     0.0523821  
H60      H      0.818430000000     0.758670000000     0.303590000000     0.0533401  
H61      H      0.740380000000     0.317430000000     0.804180000000     0.0533222  
H62      H      0.681040000000     0.260040000000     0.802270000000     0.05325    
H63      H      0.709280000000     0.209650000000     0.735420000000     0.0504946  
H64      H      0.790490000000     0.288210000000     0.738040000000     0.0505422  
H65      H      0.797270000000     0.260480000000     0.621760000000     0.0523971  
H66      H      0.759390000000     0.180430000000     0.669280000000     0.0532875  
H67      H      0.761830000000     0.294770000000     0.853610000000     0.0523686  
H68      H      0.702500000000     0.237380000000     0.851690000000     0.0523583  
H69      H      0.737940000000     0.203100000000     0.619850000000     0.0523499  
H70      H      0.818730000000     0.237830000000     0.671190000000     0.0532749  
H71      H      0.795860000000     0.260710000000     0.353320000000     0.0524017  
H72      H      0.738360000000     0.201470000000     0.351390000000     0.0524169  
H73      H      0.710550000000     0.208370000000     0.235410000000     0.0505093  
H74      H      0.789240000000     0.289460000000     0.238050000000     0.0505171  
H75      H      0.738810000000     0.317800000000     0.171850000000     0.0532244  
H76      H      0.703930000000     0.237120000000     0.120140000000     0.0523631  
H77      H      0.818460000000     0.239260000000     0.303540000000     0.0533025  
H78      H      0.760980000000     0.180040000000     0.301620000000     0.0532771  
H79      H      0.681330000000     0.258570000000     0.169920000000     0.0532594  
H80      H      0.761430000000     0.296370000000     0.122070000000     0.0523937  
H81      H      0.661600000000     0.560990000000     0.907600000000     0.0525457  
H82      H      0.658180000000     0.561080000000     0.064890000000     0.0524767  
H83      H      0.678240000000     0.498980000000     0.094820000000     0.0504205  
H84      H      0.682890000000     0.498870000000     0.880790000000     0.0504169  
H85      H      0.661600000000     0.436770000000     0.907650000000     0.0525401  
H86      H      0.698870000000     0.435770000000     0.067010000000     0.0529489  
H87      H      0.702240000000     0.562090000000     0.911550000000     0.0529752  
H88      H      0.698860000000     0.562170000000     0.066960000000     0.0529538  
H89      H      0.658190000000     0.436850000000     0.064950000000     0.0524685  
H90      H      0.702240000000     0.435690000000     0.911600000000     0.0529814  
H91      H      0.261760000000     0.794610000000     0.619800000000     0.0523584  
H92      H      0.202170000000     0.737480000000     0.622630000000     0.0524352  
H93      H      0.209080000000     0.709790000000     0.738760000000     0.0505001  
H94      H      0.290640000000     0.787990000000     0.734900000000     0.050487   
H95      H      0.318790000000     0.737500000000     0.801280000000     0.0532461  
H96      H      0.237960000000     0.703170000000     0.853860000000     0.0524099  
H97      H      0.240500000000     0.817390000000     0.669570000000     0.053253   
H98      H      0.180930000000     0.760280000000     0.672390000000     0.0532671  
H99      H      0.259220000000     0.680390000000     0.804100000000     0.0533219  
H100     H      0.297550000000     0.760300000000     0.851040000000     0.0524029  
H101     H      0.238290000000     0.701330000000     0.122300000000     0.0523828  
H102     H      0.295520000000     0.760800000000     0.119520000000     0.0523754  
H103     H      0.289030000000     0.789600000000     0.234930000000     0.050479   
H104     H      0.210690000000     0.708180000000     0.238740000000     0.0504907  
H105     H      0.181400000000     0.758270000000     0.304730000000     0.0533047  
H106     H      0.261430000000     0.796440000000     0.351360000000     0.0524057  
H107     H      0.261080000000     0.680010000000     0.171720000000     0.0532502  
H108     H      0.318320000000     0.739500000000     0.168930000000     0.0533187  
H109     H      0.238640000000     0.817760000000     0.301950000000     0.0532932  
H110     H      0.204200000000     0.736970000000     0.354150000000     0.0523586  
H111     H      0.563210000000     0.697870000000     0.907110000000     0.0529249  
H112     H      0.562950000000     0.700950000000     0.062550000000     0.0529835  
H113     H      0.499680000000     0.681530000000     0.093120000000     0.0504547  
H114     H      0.500040000000     0.677290000000     0.879080000000     0.0503933  
H115     H      0.436780000000     0.697850000000     0.906860000000     0.0529539  
H116     H      0.437590000000     0.660290000000     0.066060000000     0.0525404  
H117     H      0.562130000000     0.657190000000     0.909020000000     0.0524419  
H118     H      0.561870000000     0.660310000000     0.066310000000     0.0525536  
H119     H      0.436520000000     0.700930000000     0.062300000000     0.0529695  
H120     H      0.437850000000     0.657180000000     0.908770000000     0.0524598  
H121     H      0.240660000000     0.180430000000     0.669110000000     0.0532671  
H122     H      0.180950000000     0.237410000000     0.672400000000     0.0532337  
H123     H      0.209020000000     0.287890000000     0.739030000000     0.0504713  
H124     H      0.290760000000     0.209890000000     0.734530000000     0.0505073  
H125     H      0.297670000000     0.237480000000     0.850830000000     0.0523854  
H126     H      0.259120000000     0.317350000000     0.804450000000     0.053269   
H127     H      0.261830000000     0.203310000000     0.619440000000     0.0523605  
H128     H      0.202110000000     0.260300000000     0.622730000000     0.0523886  
H129     H      0.237950000000     0.294470000000     0.854120000000     0.0523512  
H130     H      0.318830000000     0.260370000000     0.801160000000     0.0532446  
H131     H      0.261250000000     0.317790000000     0.172070000000     0.0533026  
H132     H      0.318340000000     0.258180000000     0.168800000000     0.0533134  
H133     H      0.288960000000     0.208080000000     0.234540000000     0.0504943  
H134     H      0.210820000000     0.289690000000     0.239020000000     0.0505115  
H135     H      0.204320000000     0.260800000000     0.354260000000     0.052361   
H136     H      0.238530000000     0.179980000000     0.301490000000     0.0533024  
H137     H      0.238370000000     0.296580000000     0.122570000000     0.0524369  
H138     H      0.295460000000     0.236970000000     0.119310000000     0.0523819  
H139     H      0.261410000000     0.201190000000     0.350990000000     0.052428   
H140     H      0.181440000000     0.239600000000     0.304760000000     0.0532916  
H141     H      0.562990000000     0.297010000000     0.062830000000     0.0529922  
H142     H      0.563240000000     0.299820000000     0.907390000000     0.052952   
H143     H      0.500070000000     0.320330000000     0.879290000000     0.0503825  
H144     H      0.499710000000     0.316470000000     0.093350000000     0.0504385  
H145     H      0.436560000000     0.297000000000     0.062600000000     0.0529766  
H146     H      0.437870000000     0.340470000000     0.908910000000     0.0524615  
H147     H      0.561900000000     0.337650000000     0.066460000000     0.0525508  
H148     H      0.562150000000     0.340490000000     0.909150000000     0.052463   
H149     H      0.436810000000     0.299790000000     0.907160000000     0.0529512  
H150     H      0.437610000000     0.337640000000     0.066220000000     0.0525501  
H151     H      0.341110000000     0.561040000000     0.064340000000     0.0524794  
H152     H      0.338580000000     0.560960000000     0.907010000000     0.0525348  
H153     H      0.317460000000     0.498830000000     0.879940000000     0.0503974  
H154     H      0.320900000000     0.498950000000     0.094010000000     0.0504325  
H155     H      0.341130000000     0.436820000000     0.064400000000     0.0525114  
H156     H      0.297940000000     0.435650000000     0.910530000000     0.0529422  
H157     H      0.300420000000     0.562130000000     0.065910000000     0.0529542  
H158     H      0.297920000000     0.562050000000     0.910460000000     0.0529453  
H159     H      0.338600000000     0.436730000000     0.907070000000     0.0525293  
H160     H      0.300440000000     0.435730000000     0.065970000000     0.0529899  
N1       N      0.179420000000     0.922280000000     0.486760000000    -0.151196   
N2       N      0.179440000000     0.075490000000     0.486630000000    -0.151166   
N3       N      0.923230000000     0.819540000000     0.487340000000    -0.151133   
N4       N      0.076490000000     0.819510000000     0.487640000000    -0.151175   
N5       N      0.820320000000     0.922320000000     0.485940000000    -0.151198   
N6       N      0.820320000000     0.075530000000     0.485790000000    -0.1512     
N7       N      0.923260000000     0.178290000000     0.486970000000    -0.151119   
N8       N      0.076520000000     0.178280000000     0.487290000000    -0.151189   
N9       N      0.715050000000     0.714090000000     0.848230000000    -0.151104   
N10      N      0.784680000000     0.783770000000     0.625470000000    -0.151148   
N11      N      0.784700000000     0.783800000000     0.347960000000    -0.151121   
N12      N      0.715010000000     0.714040000000     0.125730000000    -0.151132   
N13      N      0.784680000000     0.214110000000     0.625210000000    -0.151149   
N14      N      0.715090000000     0.283760000000     0.848260000000    -0.151181   
N15      N      0.715030000000     0.283820000000     0.125760000000    -0.151145   
N16      N      0.784770000000     0.214020000000     0.347710000000    -0.151176   
N17      N      0.679430000000     0.422320000000     0.987750000000    -0.151199   
N18      N      0.679420000000     0.575530000000     0.987680000000    -0.151191   
N19      N      0.284730000000     0.713990000000     0.847810000000    -0.15117    
N20      N      0.214990000000     0.783790000000     0.625860000000    -0.151137   
N21      N      0.215070000000     0.783710000000     0.348360000000    -0.151115   
N22      N      0.284650000000     0.714060000000     0.125300000000    -0.151154   
N23      N      0.423230000000     0.678280000000     0.986030000000    -0.151177   
N24      N      0.576490000000     0.678290000000     0.986330000000    -0.151154   
N25      N      0.284740000000     0.283770000000     0.847900000000    -0.151155   
N26      N      0.215040000000     0.214010000000     0.625660000000    -0.151157   
N27      N      0.215080000000     0.214040000000     0.348170000000    -0.151137   
N28      N      0.284700000000     0.283730000000     0.125390000000    -0.151123   
N29      N      0.423260000000     0.319510000000     0.986250000000    -0.151161   
N30      N      0.576520000000     0.319530000000     0.986540000000    -0.151175   
N31      N      0.320330000000     0.422280000000     0.986950000000    -0.151206   
N32      N      0.320310000000     0.575490000000     0.986870000000    -0.151205   
O1       O      0.377780000000     0.322040000000     0.032370000000    -0.247763   
O2       O      0.322990000000     0.376870000000     0.940800000000    -0.247866   
O3       O      0.322160000000     0.286890000000     0.058290000000    -0.247865   
O4       O      0.322960000000     0.287690000000     0.913010000000    -0.247846   
O5       O      0.287830000000     0.321200000000     0.914930000000    -0.247906   
O6       O      0.288580000000     0.321950000000     0.060200000000    -0.247752   
O7       O      0.377930000000     0.323680000000     0.940400000000    -0.24796    
O8       O      0.324470000000     0.376930000000     0.032770000000    -0.247925   
O9       O      0.288490000000     0.675880000000     0.059920000000    -0.247768   
O10      O      0.322900000000     0.710120000000     0.913010000000    -0.247854   
O11      O      0.324450000000     0.620890000000     0.032650000000    -0.247891   
O12      O      0.377760000000     0.675820000000     0.032160000000    -0.247808   
O13      O      0.377900000000     0.674010000000     0.940200000000    -0.248036   
O14      O      0.322970000000     0.620850000000     0.940670000000    -0.247782   
O15      O      0.322160000000     0.710860000000     0.058290000000    -0.247744   
O16      O      0.287860000000     0.676520000000     0.914660000000    -0.247924   
O17      O      0.621990000000     0.323730000000     0.940850000000    -0.248135   
O18      O      0.675040000000     0.376960000000     0.033480000000    -0.248017   
O19      O      0.711870000000     0.321330000000     0.915020000000    -0.24761    
O20      O      0.711280000000     0.321910000000     0.060300000000    -0.247885   
O21      O      0.677460000000     0.287070000000     0.059170000000    -0.247652   
O22      O      0.676970000000     0.287570000000     0.913890000000    -0.247912   
O23      O      0.621850000000     0.322060000000     0.032810000000    -0.247729   
O24      O      0.677030000000     0.376920000000     0.941520000000    -0.247694   
O25      O      0.711790000000     0.676470000000     0.914800000000    -0.24759    
O26      O      0.677400000000     0.710740000000     0.059230000000    -0.247687   
O27      O      0.677010000000     0.620880000000     0.941420000000    -0.24767    
O28      O      0.621970000000     0.674030000000     0.940670000000    -0.248083   
O29      O      0.621820000000     0.675850000000     0.032640000000    -0.247573   
O30      O      0.675020000000     0.620940000000     0.033380000000    -0.248016   
O31      O      0.676970000000     0.710320000000     0.913950000000    -0.247906   
O32      O      0.711300000000     0.675980000000     0.060080000000    -0.247849   
O33      O      0.822740000000     0.120930000000     0.531990000000    -0.247825   
O34      O      0.877930000000     0.175760000000     0.440680000000    -0.247699   
O35      O      0.787910000000     0.176530000000     0.558460000000    -0.247772   
O36      O      0.788510000000     0.175930000000     0.413170000000    -0.247961   
O37      O      0.822320000000     0.210770000000     0.414300000000    -0.247808   
O38      O      0.822800000000     0.210290000000     0.559580000000    -0.247888   
O39      O      0.824720000000     0.120880000000     0.440040000000    -0.248127   
O40      O      0.877780000000     0.174120000000     0.532660000000    -0.248012   
O41      O      0.877750000000     0.823820000000     0.533000000000    -0.248101   
O42      O      0.824710000000     0.876910000000     0.440270000000    -0.248142   
O43      O      0.822750000000     0.787540000000     0.559730000000    -0.247919   
O44      O      0.822310000000     0.787100000000     0.414450000000    -0.247825   
O45      O      0.788420000000     0.821860000000     0.413610000000    -0.247922   
O46      O      0.787940000000     0.821380000000     0.558890000000    -0.247742   
O47      O      0.877900000000     0.821980000000     0.441040000000    -0.247688   
O48      O      0.822710000000     0.876970000000     0.532220000000    -0.247722   
O49      O      0.177560000000     0.786910000000     0.415370000000    -0.247714   
O50      O      0.211860000000     0.821260000000     0.559000000000    -0.247891   
O51      O      0.121960000000     0.821950000000     0.441500000000    -0.247855   
O52      O      0.175280000000     0.876880000000     0.441000000000    -0.248058   
O53      O      0.176750000000     0.876930000000     0.532980000000    -0.247845   
O54      O      0.121820000000     0.823770000000     0.533460000000    -0.248104   
O55      O      0.211230000000     0.821900000000     0.413740000000    -0.247658   
O56      O      0.176820000000     0.787660000000     0.560660000000    -0.247956   
O57      O      0.175310000000     0.120840000000     0.440800000000    -0.247943   
O58      O      0.121840000000     0.174110000000     0.533150000000    -0.248063   
O59      O      0.211200000000     0.175820000000     0.413360000000    -0.247786   
O60      O      0.211940000000     0.176570000000     0.558620000000    -0.24778    
O61      O      0.176820000000     0.210090000000     0.560550000000    -0.247768   
O62      O      0.177620000000     0.210890000000     0.415270000000    -0.24776    
O63      O      0.176780000000     0.120910000000     0.532780000000    -0.247736   
O64      O      0.122000000000     0.175730000000     0.441180000000    -0.247886   


