data_structure

_audit_creation_method RASPA-1.0
_audit_creation_date 2023-5-22
_audit_author_name 'Poobodin Mano'

_cell_length_a    27.1931
_cell_length_b    26.523
_cell_length_c    24.9954
_cell_angle_alpha 90
_cell_angle_beta  90
_cell_angle_gamma 90
_cell_volume      18027.7

_symmetry_cell_setting          triclinic
_symmetry_space_group_name_Hall 'P 1'
_symmetry_space_group_name_H-M  'P 1'
_symmetry_Int_Tables_number     1

_symmetry_equiv_pos_as_xyz 'x,y,z'

loop_
_atom_site_label
_atom_site_type_symbol
_atom_site_fract_x
_atom_site_fract_y
_atom_site_fract_z
_atom_site_charge
C1       C      0.915230000000     0.323900000000     0.808670000000     0.358417   
C2       C      0.921530000000     0.468120000000     0.927110000000     0.359222   
C3       C      0.803510000000     0.452030000000     0.786040000000     0.356752   
C4       C      0.797980000000     0.354690000000     0.945270000000     0.356974   
C5       C      0.049300000000     0.547360000000     0.112330000000     0.356158   
C6       C      0.177230000000     0.678210000000     0.099780000000     0.35757    
C7       C      0.075880000000     0.669100000000     0.243620000000     0.357434   
C8       C      0.197990000000     0.536250000000     0.198020000000     0.355964   
C9       C      0.310200000000     0.856810000000     0.037080000000     0.356733   
C10      C      0.299910000000     0.976540000000     0.911470000000     0.355368   
C11      C      0.442570000000     0.988770000000     0.008760000000     0.356467   
C12      C      0.434300000000     0.845430000000     0.916870000000     0.356075   
C13      C      0.721160000000     0.195040000000     0.103830000000     0.358862   
C14      C      0.593140000000     0.086670000000     0.161040000000     0.357955   
C15      C      0.748410000000     0.100930000000     0.252090000000     0.356604   
C16      C      0.622800000000     0.226440000000     0.261290000000     0.358476   
C17      C      0.414140000000     0.433070000000     0.490710000000     0.356654   
C18      C      0.314520000000     0.286950000000     0.418500000000     0.355771   
C19      C      0.293140000000     0.452220000000     0.373530000000     0.355432   
C20      C      0.446590000000     0.351500000000     0.334150000000     0.355936   
C21      C      0.638550000000     0.573360000000     0.756830000000     0.356601   
C22      C      0.524620000000     0.713410000000     0.739070000000     0.359328   
C23      C      0.670560000000     0.709970000000     0.647120000000     0.357699   
C24      C      0.541570000000     0.593380000000     0.603660000000     0.357121   
C25      C      0.931170000000     0.926140000000     0.492330000000     0.356876   
C26      C      0.792380000000     0.929630000000     0.374110000000     0.358146   
C27      C      0.928520000000     0.820040000000     0.341010000000     0.359474   
C28      C      0.817940000000     0.793940000000     0.483690000000     0.358523   
C29      C      0.090770000000     0.211250000000     0.706940000000     0.359326   
C30      C      0.186860000000     0.059310000000     0.717750000000     0.360056   
C31      C      0.080220000000     0.083820000000     0.574720000000     0.355219   
C32      C      0.225820000000     0.178560000000     0.591020000000     0.357558   
C33      C      0.018380000000     0.018090000000     0.556550000000    -0.0119531  
C34      C      0.991320000000     0.994370000000     0.508940000000    -0.0115625  
C35      C      0.763670000000     0.772340000000     0.559210000000    -0.0113032  
C36      C      0.737390000000     0.726200000000     0.582440000000    -0.0116963  
C37      C      0.294200000000     0.211500000000     0.472580000000    -0.00719985 
C38      C      0.259640000000     0.230310000000     0.516590000000    -0.0111648  
C39      C      0.465820000000     0.503310000000     0.522000000000    -0.0115682  
C40      C      0.488710000000     0.523110000000     0.573900000000    -0.0116154  
C41      C      0.784790000000     0.022670000000     0.289330000000    -0.00834032 
C42      C      0.759850000000     0.012040000000     0.343020000000    -0.00689436 
C43      C      0.525780000000     0.308170000000     0.320140000000    -0.0115592  
C44      C      0.558700000000     0.291630000000     0.273610000000    -0.0120231  
C45      C      0.256690000000     0.996420000000     0.827430000000    -0.0117315  
C46      C      0.216210000000     0.031610000000     0.806780000000    -0.0115683  
C47      C      0.459950000000     0.799080000000     0.835950000000    -0.0116503  
C48      C      0.496750000000     0.758000000000     0.820050000000    -0.0114923  
C49      C      0.493170000000     0.022400000000     0.082670000000    -0.011925   
C50      C      0.539020000000     0.055340000000     0.089390000000    -0.0114465  
C51      C      0.996990000000     0.763390000000     0.316270000000    -0.0118204  
C52      C      0.012430000000     0.731550000000     0.267910000000    -0.0114641  
C53      C      0.254370000000     0.784560000000     0.047140000000    -0.0116981  
C54      C      0.228610000000     0.754530000000     0.091280000000    -0.0113543  
C55      C      0.257420000000     0.511430000000     0.307450000000    -0.00738849 
C56      C      0.232750000000     0.477820000000     0.265530000000    -0.00749084 
C57      C      0.993940000000     0.289410000000     0.775570000000    -0.0119086  
C58      C      0.012530000000     0.244880000000     0.742050000000    -0.0113191  
C59      C      0.771510000000     0.280100000000     0.996710000000    -0.0118288  
C60      C      0.742130000000     0.268330000000     0.047490000000    -0.0114093  
C61      C      0.712640000000     0.528870000000     0.790180000000    -0.00903877 
C62      C      0.723940000000     0.484960000000     0.752380000000    -0.00621749 
C63      C      0.969920000000     0.486890000000     0.008220000000    -0.011159   
C64      C      0.994750000000     0.532190000000     0.035020000000    -0.0122612  
Cd1      Cd     0.860710000000     0.399960000000     0.866040000000     0.510812   
Cd2      Cd     0.123910000000     0.607210000000     0.164390000000     0.510983   
Cd3      Cd     0.371500000000     0.917660000000     0.969000000000     0.512496   
Cd4      Cd     0.671370000000     0.152570000000     0.195010000000     0.511357   
Cd5      Cd     0.367140000000     0.380270000000     0.404120000000     0.511714   
Cd6      Cd     0.593120000000     0.646530000000     0.687150000000     0.51102    
Cd7      Cd     0.868800000000     0.868630000000     0.421420000000     0.510646   
Cd8      Cd     0.144630000000     0.134720000000     0.648730000000     0.51079    
H1       H      0.050510000000     0.071140000000     0.499630000000     0.109114   
H2       H      0.958870000000     0.942950000000     0.567130000000     0.109203   
H3       H      0.040770000000     0.988860000000     0.577190000000     0.0558852  
H4       H      0.991180000000     0.032500000000     0.586060000000     0.0547251  
H5       H      0.018410000000     0.980060000000     0.479260000000     0.0543777  
H6       H      0.968500000000     0.023360000000     0.488500000000     0.0546262  
H7       H      0.799100000000     0.720620000000     0.503230000000     0.109902   
H8       H      0.712670000000     0.774860000000     0.647390000000     0.109697   
H9       H      0.787210000000     0.789970000000     0.590430000000     0.0543126  
H10      H      0.736050000000     0.800980000000     0.546790000000     0.0583312  
H11      H      0.765050000000     0.698080000000     0.595920000000     0.0524842  
H12      H      0.714590000000     0.708090000000     0.550860000000     0.0590537  
H13      H      0.266260000000     0.230860000000     0.394220000000     0.110941   
H14      H      0.299990000000     0.191200000000     0.578610000000     0.111816   
H15      H      0.283980000000     0.172090000000     0.462280000000     0.0483484  
H16      H      0.332750000000     0.211980000000     0.487540000000     0.0560594  
H17      H      0.221210000000     0.230810000000     0.501350000000     0.0630315  
H18      H      0.270170000000     0.269490000000     0.527420000000     0.0625847  
H19      H      0.431770000000     0.444290000000     0.570410000000     0.110269   
H20      H      0.519040000000     0.584010000000     0.525350000000     0.109839   
H21      H      0.495350000000     0.494700000000     0.492590000000     0.05495    
H22      H      0.442070000000     0.532940000000     0.503980000000     0.0546861  
H23      H      0.512960000000     0.493780000000     0.591680000000     0.0546731  
H24      H      0.459280000000     0.531400000000     0.603540000000     0.0553603  
H25      H      0.814970000000     0.098020000000     0.292550000000     0.112038   
H26      H      0.723880000000     0.939500000000     0.339240000000     0.113304   
H27      H      0.765100000000     0.002040000000     0.257010000000     0.0606967  
H28      H      0.823360000000     0.008870000000     0.291220000000     0.0558764  
H29      H      0.722220000000     0.028440000000     0.342350000000     0.0555322  
H30      H      0.781320000000     0.030150000000     0.375680000000     0.0577188  
H31      H      0.483060000000     0.350620000000     0.261500000000     0.109405   
H32      H      0.612040000000     0.265120000000     0.332180000000     0.109301   
H33      H      0.547500000000     0.330960000000     0.349060000000     0.0520053  
H34      H      0.512110000000     0.274360000000     0.341900000000     0.0577822  
H35      H      0.573950000000     0.325540000000     0.253430000000     0.0510726  
H36      H      0.536340000000     0.270570000000     0.243770000000     0.058426   
H37      H      0.244710000000     0.030040000000     0.906100000000     0.109447   
H38      H      0.218930000000     0.989940000000     0.731770000000     0.109821   
H39      H      0.291330000000     0.003450000000     0.804960000000     0.0585695  
H40      H      0.246110000000     0.956490000000     0.820140000000     0.0539979  
H41      H      0.226510000000     0.071490000000     0.814900000000     0.0588019  
H42      H      0.181370000000     0.023720000000     0.828480000000     0.0515012  
H43      H      0.489340000000     0.791720000000     0.916810000000     0.109596   
H44      H      0.464060000000     0.760650000000     0.740320000000     0.110014   
H45      H      0.421880000000     0.786420000000     0.826750000000     0.0552542  
H46      H      0.466930000000     0.833800000000     0.812190000000     0.0564772  
H47      H      0.490050000000     0.723500000000     0.844270000000     0.0547571  
H48      H      0.534820000000     0.770920000000     0.828910000000     0.0571886  
H49      H      0.492230000000     0.047100000000     0.999420000000     0.109614   
H50      H      0.538170000000     0.033990000000     0.173800000000     0.109875   
H51      H      0.462910000000     0.037300000000     0.108060000000     0.0549351  
H52      H      0.501170000000     0.983320000000     0.096350000000     0.0576029  
H53      H      0.530960000000     0.094410000000     0.075710000000     0.0551923  
H54      H      0.569190000000     0.040560000000     0.063760000000     0.0558441  
H55      H      0.946240000000     0.802290000000     0.262800000000     0.109274   
H56      H      0.068730000000     0.698960000000     0.319660000000     0.109498   
H57      H      0.028460000000     0.787020000000     0.329570000000     0.052424   
H58      H      0.986910000000     0.738200000000     0.350150000000     0.0578503  
H59      H      0.022480000000     0.756650000000     0.233960000000     0.053778   
H60      H      0.980990000000     0.707890000000     0.254520000000     0.0558259  
H61      H      0.278440000000     0.836880000000     0.109410000000     0.10987    
H62      H      0.201300000000     0.706120000000     0.027240000000     0.109987   
H63      H      0.226680000000     0.798360000000     0.017840000000     0.0534298  
H64      H      0.280150000000     0.759490000000     0.025050000000     0.0563112  
H65      H      0.202390000000     0.779270000000     0.113130000000     0.053282   
H66      H      0.256160000000     0.740790000000     0.120770000000     0.0558185  
H67      H      0.229710000000     0.493950000000     0.386410000000     0.112752   
H68      H      0.261790000000     0.494680000000     0.187020000000     0.11311    
H69      H      0.236270000000     0.547140000000     0.311060000000     0.0565599  
H70      H      0.295540000000     0.520370000000     0.294310000000     0.0594994  
H71      H      0.194430000000     0.469410000000     0.278340000000     0.0601747  
H72      H      0.253520000000     0.441830000000     0.262410000000     0.0576791  
H73      H      0.920200000000     0.259350000000     0.762640000000     0.109535   
H74      H      0.085680000000     0.278060000000     0.749280000000     0.110375   
H75      H      0.004960000000     0.325520000000     0.756380000000     0.0555675  
H76      H      0.011160000000     0.288440000000     0.815920000000     0.0556883  
H77      H      0.994080000000     0.244950000000     0.702320000000     0.0543025  
H78      H      0.002820000000     0.208790000000     0.762110000000     0.0553268  
H79      H      0.743210000000     0.356870000000     0.002650000000     0.109023   
H80      H      0.763050000000     0.189750000000     0.035030000000     0.109706   
H81      H      0.756750000000     0.257710000000     0.962690000000     0.053877   
H82      H      0.810580000000     0.268810000000     0.002420000000     0.0569054  
H83      H      0.703100000000     0.279780000000     0.041990000000     0.0541735  
H84      H      0.757010000000     0.290480000000     0.081630000000     0.0559001  
H85      H      0.637730000000     0.520250000000     0.817780000000     0.112128   
H86      H      0.795600000000     0.492890000000     0.715840000000     0.112424   
H87      H      0.733880000000     0.562670000000     0.777450000000     0.0605212  
H88      H      0.724200000000     0.518290000000     0.831330000000     0.0577758  
H89      H      0.709260000000     0.493930000000     0.711960000000     0.0529841  
H90      H      0.705630000000     0.450270000000     0.767530000000     0.0566978  
H91      H      0.953940000000     0.537340000000     0.941440000000     0.109974   
H92      H      0.003080000000     0.485640000000     0.106380000000     0.109353   
H93      H      0.940410000000     0.471860000000     0.034610000000     0.0540561  
H94      H      0.997250000000     0.456190000000     0.002340000000     0.0562489  
H95      H      0.967330000000     0.562810000000     0.040730000000     0.0532421  
H96      H      0.024250000000     0.547060000000     0.008490000000     0.0587918  
N1       N      0.050370000000     0.059610000000     0.539660000000    -0.19977    
N2       N      0.959800000000     0.952750000000     0.526580000000    -0.200406   
N3       N      0.794340000000     0.758610000000     0.513270000000    -0.199881   
N4       N      0.706560000000     0.740400000000     0.628110000000    -0.200059   
N5       N      0.289560000000     0.243100000000     0.424860000000    -0.201724   
N6       N      0.264580000000     0.198540000000     0.564250000000    -0.199739   
N7       N      0.436340000000     0.457930000000     0.531450000000    -0.200395   
N8       N      0.517330000000     0.568980000000     0.564020000000    -0.200467   
N9       N      0.785050000000     0.076960000000     0.278750000000    -0.201007   
N10      N      0.756090000000     0.957600000000     0.351630000000    -0.201599   
N11      N      0.484000000000     0.338210000000     0.301220000000    -0.200479   
N12      N      0.599600000000     0.260510000000     0.292870000000    -0.200559   
N13      N      0.265610000000     0.003750000000     0.884720000000    -0.199892   
N14      N      0.208060000000     0.023950000000     0.749380000000    -0.200348   
N15      N      0.463710000000     0.810850000000     0.893070000000    -0.200204   
N16      N      0.492590000000     0.745280000000     0.763190000000    -0.200335   
N17      N      0.476930000000     0.021660000000     0.026760000000    -0.199856   
N18      N      0.555640000000     0.056510000000     0.145160000000    -0.200432   
N19      N      0.955520000000     0.796380000000     0.302940000000    -0.20055    
N20      N      0.054270000000     0.698930000000     0.280870000000    -0.200503   
N21      N      0.281440000000     0.827730000000     0.068830000000    -0.200479   
N22      N      0.201920000000     0.711510000000     0.068720000000    -0.200436   
N23      N      0.257980000000     0.485930000000     0.359360000000    -0.201231   
N24      N      0.233050000000     0.502910000000     0.213390000000    -0.201222   
N25      N      0.940290000000     0.288140000000     0.781120000000    -0.200212   
N26      N      0.065890000000     0.247350000000     0.734210000000    -0.200657   
N27      N      0.768760000000     0.333780000000     0.983170000000    -0.200195   
N28      N      0.744140000000     0.214470000000     0.060370000000    -0.200498   
N29      N      0.659800000000     0.539430000000     0.790220000000    -0.20129    
N30      N      0.777150000000     0.477320000000     0.748610000000    -0.201666   
N31      N      0.948820000000     0.500840000000     0.956320000000    -0.200733   
N32      N      0.015240000000     0.518450000000     0.087270000000    -0.199983   
O1       O      0.914080000000     0.423240000000     0.942160000000    -0.251286   
O2       O      0.795060000000     0.401090000000     0.933960000000    -0.246573   
O3       O      0.936820000000     0.359780000000     0.832450000000    -0.249366   
O4       O      0.849610000000     0.447390000000     0.781970000000    -0.247017   
O5       O      0.783550000000     0.432460000000     0.826770000000    -0.24958    
O6       O      0.868820000000     0.322960000000     0.811540000000    -0.247539   
O7       O      0.901780000000     0.481390000000     0.883570000000    -0.248757   
O8       O      0.829480000000     0.329030000000     0.919740000000    -0.247193   
O9       O      0.154060000000     0.641650000000     0.079300000000    -0.241959   
O10      O      0.199530000000     0.557100000000     0.152590000000    -0.250227   
O11      O      0.065240000000     0.587860000000     0.092050000000    -0.244216   
O12      O      0.060350000000     0.666780000000     0.195950000000    -0.252578   
O13      O      0.113020000000     0.642510000000     0.254970000000    -0.245927   
O14      O      0.067010000000     0.534720000000     0.157130000000    -0.250304   
O15      O      0.176110000000     0.682090000000     0.150260000000    -0.25201    
O16      O      0.162400000000     0.548110000000     0.228130000000    -0.245102   
O17      O      0.306510000000     0.982240000000     0.961200000000    -0.250212   
O18      O      0.402540000000     0.870340000000     0.890910000000    -0.242929   
O19      O      0.315150000000     0.847760000000     0.987690000000    -0.25427    
O20      O      0.421860000000     0.957290000000     0.039460000000    -0.242899   
O21      O      0.430060000000     0.987940000000     0.960030000000    -0.251014   
O22      O      0.333450000000     0.894280000000     0.055530000000    -0.242706   
O23      O      0.326570000000     0.944150000000     0.888170000000    -0.24345    
O24      O      0.437290000000     0.854060000000     0.966500000000    -0.251077   
O25      O      0.616020000000     0.114610000000     0.128440000000    -0.249822   
O26      O      0.657680000000     0.199740000000     0.279010000000    -0.248669   
O27      O      0.697690000000     0.222500000000     0.136450000000    -0.2488     
O28      O      0.711050000000     0.077690000000     0.234570000000    -0.248093   
O29      O      0.750160000000     0.147910000000     0.243590000000    -0.24639    
O30      O      0.722020000000     0.148250000000     0.113410000000    -0.24833    
O31      O      0.606630000000     0.088450000000     0.209430000000    -0.247492   
O32      O      0.610620000000     0.219520000000     0.213020000000    -0.250123   
O33      O      0.342860000000     0.304130000000     0.454290000000    -0.246139   
O34      O      0.411050000000     0.378000000000     0.317580000000    -0.243582   
O35      O      0.418170000000     0.447540000000     0.442650000000    -0.253066   
O36      O      0.328180000000     0.440670000000     0.342490000000    -0.245051   
O37      O      0.292170000000     0.430620000000     0.418630000000    -0.250696   
O38      O      0.388330000000     0.394170000000     0.499080000000    -0.242672   
O39      O      0.310380000000     0.312690000000     0.376190000000    -0.252348   
O40      O      0.445470000000     0.338180000000     0.382730000000    -0.25294    
O41      O      0.559890000000     0.693290000000     0.764260000000    -0.246709   
O42      O      0.565440000000     0.633310000000     0.594390000000    -0.245217   
O43      O      0.592980000000     0.582520000000     0.759040000000    -0.244749   
O44      O      0.644210000000     0.723160000000     0.686420000000    -0.249162   
O45      O      0.661510000000     0.667350000000     0.626500000000    -0.243953   
O46      O      0.663100000000     0.597470000000     0.722300000000    -0.253467   
O47      O      0.520630000000     0.702540000000     0.690020000000    -0.249854   
O48      O      0.541420000000     0.577630000000     0.651450000000    -0.250195   
O49      O      0.832410000000     0.948940000000     0.389850000000    -0.250589   
O50      O      0.845200000000     0.781630000000     0.444790000000    -0.246484   
O51      O      0.930010000000     0.935290000000     0.442630000000    -0.248249   
O52      O      0.892370000000     0.847620000000     0.328650000000    -0.251203   
O53      O      0.937790000000     0.815380000000     0.390370000000    -0.249188   
O54      O      0.904060000000     0.890790000000     0.508940000000    -0.248344   
O55      O      0.787650000000     0.882590000000     0.380110000000    -0.248188   
O56      O      0.813960000000     0.840580000000     0.493670000000    -0.244549   
O57      O      0.171570000000     0.100960000000     0.736100000000    -0.249196   
O58      O      0.181730000000     0.186840000000     0.577320000000    -0.243148   
O59      O      0.069540000000     0.172930000000     0.687660000000    -0.251954   
O60      O      0.081800000000     0.072000000000     0.623780000000    -0.246418   
O61      O      0.108060000000     0.119330000000     0.559710000000    -0.244741   
O62      O      0.136600000000     0.214430000000     0.699520000000    -0.248799   
O63      O      0.181950000000     0.052190000000     0.668010000000    -0.2472     
O64      O      0.232340000000     0.150450000000     0.631210000000    -0.248368   


