data_structure

_audit_creation_method RASPA-1.0
_audit_creation_date 2023-5-22
_audit_author_name 'Poobodin Mano'

_cell_length_a    28.3133
_cell_length_b    26.1772
_cell_length_c    24.8466
_cell_angle_alpha 90
_cell_angle_beta  90
_cell_angle_gamma 90
_cell_volume      18415.4

_symmetry_cell_setting          triclinic
_symmetry_space_group_name_Hall 'P 1'
_symmetry_space_group_name_H-M  'P 1'
_symmetry_Int_Tables_number     1

_symmetry_equiv_pos_as_xyz 'x,y,z'

loop_
_atom_site_label
_atom_site_type_symbol
_atom_site_fract_x
_atom_site_fract_y
_atom_site_fract_z
_atom_site_charge
C1       C      0.963010000000     0.530610000000     0.035440000000     0.415498   
C2       C      0.915870000000     0.392880000000     0.949780000000     0.418899   
C3       C      0.827270000000     0.487860000000     0.074040000000     0.418371   
C4       C      0.848560000000     0.523450000000     0.901680000000     0.416263   
C5       C      0.138310000000     0.695430000000     0.114000000000     0.417638   
C6       C      0.098590000000     0.750010000000     0.289260000000     0.417927   
C7       C      0.186610000000     0.623000000000     0.255170000000     0.417674   
C8       C      0.224140000000     0.793240000000     0.206940000000     0.417666   
C9       C      0.418110000000     0.922870000000     0.112880000000     0.416958   
C10      C      0.476840000000     0.040050000000     0.009860000000     0.422933   
C11      C      0.487130000000     0.879180000000     0.957020000000     0.423961   
C12      C      0.348830000000     0.956180000000     0.959140000000     0.417452   
C13      C      0.748610000000     0.164460000000     0.267990000000     0.424319   
C14      C      0.701400000000     0.280410000000     0.158410000000     0.416236   
C15      C      0.662200000000     0.119080000000     0.130490000000     0.41524    
C16      C      0.593620000000     0.203120000000     0.261570000000     0.42607    
C17      C      0.465730000000     0.480890000000     0.519230000000     0.418185   
C18      C      0.322380000000     0.445270000000     0.427040000000     0.418399   
C19      C      0.433870000000     0.339640000000     0.447300000000     0.417648   
C20      C      0.349300000000     0.414690000000     0.593160000000     0.416662   
C21      C      0.694020000000     0.599610000000     0.698920000000     0.417891   
C22      C      0.579020000000     0.711170000000     0.750100000000     0.420161   
C23      C      0.715480000000     0.763440000000     0.690500000000     0.41742    
C24      C      0.611610000000     0.679400000000     0.582290000000     0.421443   
C25      C      0.942370000000     0.928010000000     0.383950000000     0.416226   
C26      C      0.965460000000     0.921590000000     0.553350000000     0.414555   
C27      C      0.879270000000     0.050550000000     0.469830000000     0.416774   
C28      C      0.818550000000     0.908570000000     0.508770000000     0.421991   
C29      C      0.110180000000     0.090410000000     0.679670000000     0.420143   
C30      C      0.057580000000     0.218380000000     0.780310000000     0.418474   
C31      C      0.184550000000     0.122870000000     0.822060000000     0.421438   
C32      C      0.182910000000     0.242490000000     0.690340000000     0.423492   
C33      C      0.063950000000     0.011950000000     0.665020000000     0.0232108  
C34      C      0.048500000000     0.978030000000     0.617940000000    -0.11211    
C35      C      0.011770000000     0.938530000000     0.635900000000     0.0248981  
C36      C      0.756320000000     0.893810000000     0.577230000000     0.0223414  
C37      C      0.764170000000     0.844540000000     0.609260000000    -0.106946   
C38      C      0.744950000000     0.849460000000     0.666760000000     0.0233056  
C39      C      0.253730000000     0.296570000000     0.680390000000     0.022038   
C40      C      0.268090000000     0.345510000000     0.650710000000    -0.110905   
C41      C      0.316600000000     0.364630000000     0.669150000000     0.0236934  
C42      C      0.546750000000     0.649930000000     0.523260000000     0.0254698  
C43      C      0.549090000000     0.591860000000     0.531260000000    -0.110728   
C44      C      0.501360000000     0.566650000000     0.519480000000     0.0216917  
C45      C      0.781390000000     0.144050000000     0.357370000000     0.0225706  
C46      C      0.827640000000     0.124580000000     0.382130000000    -0.111435   
C47      C      0.823430000000     0.118910000000     0.443330000000     0.0249785  
C48      C      0.482200000000     0.304300000000     0.373490000000     0.0226693  
C49      C      0.503120000000     0.252780000000     0.356210000000    -0.114673   
C50      C      0.533730000000     0.257960000000     0.305590000000     0.0219459  
C51      C      0.247840000000     0.063820000000     0.850230000000     0.0214194  
C52      C      0.259160000000     0.030580000000     0.899400000000    -0.111795   
C53      C      0.297650000000     0.991250000000     0.886740000000     0.0205328  
C54      C      0.526700000000     0.773200000000     0.797060000000     0.0203663  
C55      C      0.531140000000     0.783240000000     0.857640000000    -0.111913   
C56      C      0.510510000000     0.835430000000     0.873030000000     0.0209472  
C57      C      0.630240000000     0.091110000000     0.042570000000     0.023551   
C58      C      0.577170000000     0.083840000000     0.051970000000    -0.106462   
C59      C      0.549030000000     0.092590000000     0.000080000000     0.024185   
C60      C      0.019860000000     0.786400000000     0.311390000000     0.0195104  
C61      C      0.014800000000     0.841320000000     0.331870000000    -0.107474   
C62      C      0.967340000000     0.864740000000     0.315350000000     0.0213254  
C63      C      0.306330000000     0.823880000000     0.200630000000     0.0218041  
C64      C      0.332720000000     0.872000000000     0.182320000000    -0.111444   
C65      C      0.386270000000     0.863510000000     0.181570000000     0.0244169  
C66      C      0.288950000000     0.505990000000     0.361720000000     0.0220877  
C67      C      0.242230000000     0.515850000000     0.332310000000    -0.114589   
C68      C      0.243190000000     0.567200000000     0.302610000000     0.0218633  
C69      C      0.975100000000     0.339920000000     0.902590000000     0.0216022  
C70      C      0.973290000000     0.294320000000     0.863960000000    -0.114146   
C71      C      0.021130000000     0.285420000000     0.836600000000     0.0219609  
C72      C      0.744390000000     0.362300000000     0.161310000000     0.0224452  
C73      C      0.754630000000     0.407890000000     0.124350000000    -0.111612   
C74      C      0.787470000000     0.446740000000     0.151410000000     0.0253445  
C75      C      0.782100000000     0.528270000000     0.837860000000     0.022235   
C76      C      0.771540000000     0.550820000000     0.782230000000    -0.111932   
C77      C      0.723520000000     0.532920000000     0.761120000000     0.0247239  
C78      C      0.077920000000     0.673960000000     0.045840000000     0.0250647  
C79      C      0.064380000000     0.619000000000     0.060600000000    -0.110959   
C80      C      0.013550000000     0.606830000000     0.043820000000     0.0217238  
H1       H      0.080910000000     0.988210000000     0.696720000000     0.0326283  
H2       H      0.032560000000     0.030580000000     0.683520000000     0.0427891  
H3       H      0.013810000000     0.870800000000     0.586020000000     0.102294   
H4       H      0.033160000000     0.002520000000     0.585810000000     0.0704929  
H5       H      0.079850000000     0.957920000000     0.601260000000     0.0568492  
H6       H      0.980370000000     0.958550000000     0.652670000000     0.0397277  
H7       H      0.027440000000     0.913910000000     0.667700000000     0.0240344  
H8       H      0.112200000000     0.049120000000     0.608720000000     0.105144   
H9       H      0.772420000000     0.926630000000     0.599010000000     0.040164   
H10      H      0.717660000000     0.900490000000     0.573660000000     0.0290178  
H11      H      0.778290000000     0.793990000000     0.719110000000     0.103244   
H12      H      0.746080000000     0.812510000000     0.588270000000     0.0682119  
H13      H      0.802600000000     0.835880000000     0.611000000000     0.0621813  
H14      H      0.707440000000     0.862130000000     0.665440000000     0.0399929  
H15      H      0.766080000000     0.878590000000     0.688710000000     0.026385   
H16      H      0.756010000000     0.869850000000     0.493910000000     0.10635    
H17      H      0.254070000000     0.303210000000     0.724640000000     0.0373845  
H18      H      0.279630000000     0.265690000000     0.671780000000     0.0375305  
H19      H      0.318150000000     0.446830000000     0.660650000000     0.103469   
H20      H      0.269040000000     0.337900000000     0.606680000000     0.0668373  
H21      H      0.241260000000     0.375640000000     0.658580000000     0.0584483  
H22      H      0.343820000000     0.335140000000     0.660230000000     0.0418081  
H23      H      0.315600000000     0.371510000000     0.713300000000     0.0256298  
H24      H      0.190650000000     0.296120000000     0.629920000000     0.105342   
H25      H      0.520630000000     0.666450000000     0.551850000000     0.037636   
H26      H      0.535300000000     0.658370000000     0.481380000000     0.0250268  
H27      H      0.532040000000     0.495870000000     0.550390000000     0.104088   
H28      H      0.576260000000     0.575490000000     0.503920000000     0.0596568  
H29      H      0.559460000000     0.583320000000     0.573470000000     0.0682344  
H30      H      0.491560000000     0.572770000000     0.476590000000     0.0392149  
H31      H      0.473310000000     0.584600000000     0.544480000000     0.0381226  
H32      H      0.613640000000     0.682640000000     0.498930000000     0.104838   
H33      H      0.771570000000     0.181400000000     0.375580000000     0.0347888  
H34      H      0.752210000000     0.116870000000     0.366280000000     0.0392405  
H35      H      0.892330000000     0.127920000000     0.479780000000     0.1057     
H36      H      0.836620000000     0.086940000000     0.364060000000     0.0681519  
H37      H      0.856560000000     0.151920000000     0.372730000000     0.0592418  
H38      H      0.794370000000     0.091790000000     0.453030000000     0.0390426  
H39      H      0.814970000000     0.156830000000     0.461070000000     0.0249262  
H40      H      0.818350000000     0.144130000000     0.280240000000     0.106062   
H41      H      0.458650000000     0.319380000000     0.341360000000     0.035192   
H42      H      0.510930000000     0.332740000000     0.379450000000     0.0362436  
H43      H      0.533730000000     0.175070000000     0.298790000000     0.103685   
H44      H      0.525220000000     0.237300000000     0.389430000000     0.0600682  
H45      H      0.473800000000     0.225520000000     0.348280000000     0.0567028  
H46      H      0.562820000000     0.285670000000     0.313060000000     0.0406145  
H47      H      0.511860000000     0.273070000000     0.272010000000     0.0303979  
H48      H      0.453260000000     0.263690000000     0.442770000000     0.10486    
H49      H      0.238630000000     0.039150000000     0.815280000000     0.0380057  
H50      H      0.279510000000     0.086490000000     0.838800000000     0.0358868  
H51      H      0.278440000000     0.937220000000     0.948830000000     0.102834   
H52      H      0.271190000000     0.055410000000     0.933040000000     0.0607976  
H53      H      0.226530000000     0.010300000000     0.912280000000     0.0572293  
H54      H      0.330240000000     0.011120000000     0.873080000000     0.0442795  
H55      H      0.284920000000     0.966260000000     0.853580000000     0.0280834  
H56      H      0.198940000000     0.105840000000     0.901650000000     0.10405    
H57      H      0.546750000000     0.802690000000     0.774310000000     0.0422786  
H58      H      0.488820000000     0.775970000000     0.785670000000     0.0283091  
H59      H      0.539290000000     0.823970000000     0.953510000000     0.104045   
H60      H      0.511980000000     0.752940000000     0.880180000000     0.058007   
H61      H      0.569070000000     0.781800000000     0.869180000000     0.0593153  
H62      H      0.472920000000     0.837700000000     0.860130000000     0.0387325  
H63      H      0.530100000000     0.866170000000     0.851690000000     0.0334142  
H64      H      0.525330000000     0.690800000000     0.802350000000     0.104293   
H65      H      0.636930000000     0.130470000000     0.027440000000     0.0406736  
H66      H      0.642360000000     0.063150000000     0.011820000000     0.0269638  
H67      H      0.478510000000     0.118750000000     0.019170000000     0.105868   
H68      H      0.570700000000     0.044410000000     0.066910000000     0.0683504  
H69      H      0.564860000000     0.111240000000     0.083180000000     0.0680796  
H70      H      0.561010000000     0.065130000000     0.968720000000     0.0381453  
H71      H      0.555500000000     0.132180000000     0.985610000000     0.0272655  
H72      H      0.671370000000     0.046420000000     0.098900000000     0.105875   
H73      H      0.013920000000     0.785240000000     0.267150000000     0.0447572  
H74      H      0.992440000000     0.762530000000     0.331220000000     0.0307188  
H75      H      0.980420000000     0.946090000000     0.315290000000     0.103687   
H76      H      0.017750000000     0.841540000000     0.376520000000     0.0635949  
H77      H      0.043940000000     0.864950000000     0.315110000000     0.0614931  
H78      H      0.937880000000     0.840470000000     0.330350000000     0.0432447  
H79      H      0.965680000000     0.866380000000     0.270670000000     0.0284043  
H80      H      0.074820000000     0.763360000000     0.366830000000     0.103846   
H81      H      0.317790000000     0.813070000000     0.241900000000     0.0345671  
H82      H      0.315080000000     0.791350000000     0.173570000000     0.0422864  
H83      H      0.420470000000     0.936270000000     0.195080000000     0.103635   
H84      H      0.320580000000     0.882620000000     0.141240000000     0.0694592  
H85      H      0.324300000000     0.904000000000     0.210170000000     0.057124   
H86      H      0.394990000000     0.831730000000     0.153510000000     0.0413779  
H87      H      0.398170000000     0.853080000000     0.222780000000     0.0255303  
H88      H      0.241730000000     0.869220000000     0.196190000000     0.10341    
H89      H      0.297210000000     0.538580000000     0.388910000000     0.0390403  
H90      H      0.318300000000     0.503190000000     0.332100000000     0.0362248  
H91      H      0.175870000000     0.545630000000     0.266540000000     0.10257    
H92      H      0.235860000000     0.484500000000     0.302980000000     0.056197   
H93      H      0.212850000000     0.516210000000     0.362020000000     0.058909   
H94      H      0.272560000000     0.567450000000     0.272890000000     0.0339933  
H95      H      0.249880000000     0.598730000000     0.331680000000     0.0414252  
H96      H      0.257300000000     0.435010000000     0.390730000000     0.102577   
H97      H      0.985490000000     0.375000000000     0.880220000000     0.0396749  
H98      H      0.002290000000     0.332930000000     0.934020000000     0.0337075  
H99      H      0.985560000000     0.230370000000     0.784740000000     0.104174   
H100     H      0.963270000000     0.259320000000     0.886630000000     0.0585054  
H101     H      0.945960000000     0.301700000000     0.832760000000     0.0575671  
H102     H      0.048730000000     0.278030000000     0.867540000000     0.0412132  
H103     H      0.031760000000     0.320250000000     0.814020000000     0.0324799  
H104     H      0.906600000000     0.316080000000     0.933610000000     0.104126   
H105     H      0.726430000000     0.375570000000     0.198610000000     0.0360082  
H106     H      0.778040000000     0.343800000000     0.173720000000     0.0387771  
H107     H      0.776260000000     0.523270000000     0.120940000000     0.104074   
H108     H      0.771330000000     0.393720000000     0.086690000000     0.0704123  
H109     H      0.720790000000     0.426940000000     0.113680000000     0.0587025  
H110     H      0.821490000000     0.427860000000     0.161820000000     0.0392026  
H111     H      0.770550000000     0.460920000000     0.188940000000     0.0247558  
H112     H      0.703040000000     0.331180000000     0.094770000000     0.10517    
H113     H      0.779910000000     0.485840000000     0.836350000000     0.0358327  
H114     H      0.755260000000     0.541580000000     0.867390000000     0.0375762  
H115     H      0.726530000000     0.532660000000     0.674160000000     0.102977   
H116     H      0.771830000000     0.593240000000     0.784900000000     0.0682366  
H117     H      0.799580000000     0.538720000000     0.753570000000     0.0583452  
H118     H      0.695200000000     0.545120000000     0.789410000000     0.0409906  
H119     H      0.723600000000     0.490510000000     0.758490000000     0.0248711  
H120     H      0.848640000000     0.570290000000     0.834710000000     0.105016   
H121     H      0.053320000000     0.701020000000     0.066060000000     0.0400018  
H122     H      0.075030000000     0.678940000000     0.001520000000     0.0252231  
H123     H      0.022370000000     0.533220000000     0.083860000000     0.10496    
H124     H      0.088860000000     0.592110000000     0.040030000000     0.059565   
H125     H      0.067900000000     0.613480000000     0.104800000000     0.069667   
H126     H      0.009140000000     0.613470000000     0.999850000000     0.0410489  
H127     H      0.988680000000     0.632810000000     0.065070000000     0.036603   
H128     H      0.153310000000     0.681580000000     0.033590000000     0.103641   
In1      In     0.888230000000     0.483450000000     0.990780000000     2.40656    
In2      In     0.162090000000     0.715690000000     0.216810000000     2.40138    
In3      In     0.433220000000     0.948680000000     0.009150000000     2.39072    
In4      In     0.675090000000     0.192090000000     0.205710000000     2.39046    
In5      In     0.392040000000     0.419690000000     0.496170000000     2.40236    
In6      In     0.649940000000     0.689230000000     0.681030000000     2.39393    
In7      In     0.901420000000     0.951000000000     0.479070000000     2.39416    
In8      In     0.134720000000     0.169200000000     0.743360000000     2.40315    
N1       N      0.997870000000     0.906600000000     0.590250000000    -0.220727   
N2       N      0.097460000000     0.051140000000     0.647280000000    -0.218943   
N3       N      0.748730000000     0.800470000000     0.694830000000    -0.220261   
N4       N      0.776210000000     0.888570000000     0.523100000000    -0.220525   
N5       N      0.327850000000     0.412660000000     0.641880000000    -0.220294   
N6       N      0.206670000000     0.279580000000     0.663640000000    -0.22028    
N7       N      0.502670000000     0.511770000000     0.531090000000    -0.219041   
N8       N      0.593280000000     0.672630000000     0.532410000000    -0.220864   
N9       N      0.868180000000     0.100790000000     0.465810000000    -0.219311   
N10      N      0.785760000000     0.150320000000     0.298980000000    -0.219428   
N11      N      0.552830000000     0.208160000000     0.289620000000    -0.221765   
N12      N      0.455340000000     0.299220000000     0.423620000000    -0.219567   
N13      N      0.306380000000     0.959300000000     0.934110000000    -0.219452   
N14      N      0.208790000000     0.098910000000     0.861730000000    -0.220237   
N15      N      0.514210000000     0.844230000000     0.931150000000    -0.220989   
N16      N      0.543120000000     0.721470000000     0.784560000000    -0.220025   
N17      N      0.498520000000     0.086200000000     0.010550000000    -0.220266   
N18      N      0.656240000000     0.082360000000     0.092630000000    -0.219201   
N19      N      0.963840000000     0.916720000000     0.336660000000    -0.219627   
N20      N      0.066450000000     0.766250000000     0.325950000000    -0.219145   
N21      N      0.410140000000     0.910570000000     0.165100000000    -0.219815   
N22      N      0.255140000000     0.832240000000     0.200840000000    -0.219071   
N23      N      0.198680000000     0.576250000000     0.274090000000    -0.219736   
N24      N      0.286940000000     0.458750000000     0.393270000000    -0.220439   
N25      N      0.018510000000     0.242480000000     0.798910000000    -0.219417   
N26      N      0.929340000000     0.347280000000     0.929060000000    -0.220071   
N27      N      0.795910000000     0.489900000000     0.115220000000    -0.220748   
N28      N      0.714510000000     0.324540000000     0.134180000000    -0.21896    
N29      N      0.715360000000     0.553980000000     0.707390000000    -0.220217   
N30      N      0.829110000000     0.543450000000     0.856570000000    -0.219626   
N31      N      0.001290000000     0.553910000000     0.057010000000    -0.218755   
N32      N      0.126570000000     0.684210000000     0.062470000000    -0.220533   
O1       O      0.889390000000     0.535650000000     0.917180000000    -0.495263   
O2       O      0.827410000000     0.491340000000     0.930890000000    -0.506295   
O3       O      0.941260000000     0.432360000000     0.947070000000    -0.50737    
O4       O      0.935360000000     0.552950000000     0.003340000000    -0.494811   
O5       O      0.833140000000     0.524800000000     0.042210000000    -0.507689   
O6       O      0.952950000000     0.484700000000     0.045720000000    -0.503892   
O7       O      0.876750000000     0.398660000000     0.973170000000    -0.500218   
O8       O      0.852060000000     0.448910000000     0.064380000000    -0.501794   
O9       O      0.180090000000     0.800240000000     0.206060000000    -0.509385   
O10      O      0.237120000000     0.747530000000     0.213270000000    -0.49279    
O11      O      0.091270000000     0.751530000000     0.239220000000    -0.494587   
O12      O      0.108060000000     0.699020000000     0.151060000000    -0.495792   
O13      O      0.212090000000     0.662030000000     0.261860000000    -0.49327    
O14      O      0.180530000000     0.702180000000     0.128310000000    -0.508403   
O15      O      0.138010000000     0.731830000000     0.303090000000    -0.509544   
O16      O      0.148880000000     0.630380000000     0.229460000000    -0.511168   
O17      O      0.355180000000     0.927980000000     0.999570000000    -0.500715   
O18      O      0.384680000000     0.980750000000     0.943780000000    -0.496601   
O19      O      0.433280000000     0.035340000000     0.019290000000    -0.4965     
O20      O      0.437180000000     0.964480000000     0.099560000000    -0.503549   
O21      O      0.456550000000     0.905920000000     0.933290000000    -0.508179   
O22      O      0.406710000000     0.894040000000     0.074320000000    -0.491583   
O23      O      0.498620000000     0.998960000000     0.000220000000    -0.507892   
O24      O      0.490880000000     0.887230000000     0.006810000000    -0.504449   
O25      O      0.618620000000     0.240660000000     0.247680000000    -0.509813   
O26      O      0.609300000000     0.160150000000     0.247560000000    -0.509112   
O27      O      0.713280000000     0.269170000000     0.205880000000    -0.499103   
O28      O      0.752390000000     0.170080000000     0.217740000000    -0.497369   
O29      O      0.644630000000     0.163170000000     0.126180000000    -0.49146    
O30      O      0.708000000000     0.172800000000     0.287130000000    -0.505482   
O31      O      0.676370000000     0.247590000000     0.134730000000    -0.491707   
O32      O      0.685970000000     0.111390000000     0.172590000000    -0.496815   
O33      O      0.357700000000     0.456450000000     0.569920000000    -0.509508   
O34      O      0.362090000000     0.375320000000     0.567820000000    -0.492443   
O35      O      0.359510000000     0.471340000000     0.432090000000    -0.496566   
O36      O      0.429040000000     0.496940000000     0.495920000000    -0.492271   
O37      O      0.412500000000     0.335490000000     0.491590000000    -0.493943   
O38      O      0.465640000000     0.434040000000     0.531070000000    -0.507805   
O39      O      0.320200000000     0.405960000000     0.456170000000    -0.512725   
O40      O      0.434150000000     0.383900000000     0.427150000000    -0.507828   
O41      O      0.589420000000     0.667920000000     0.624620000000    -0.509744   
O42      O      0.652770000000     0.696430000000     0.589410000000    -0.496389   
O43      O      0.602170000000     0.745480000000     0.726170000000    -0.50612    
O44      O      0.679660000000     0.627740000000     0.736810000000    -0.493805   
O45      O      0.679140000000     0.768320000000     0.661620000000    -0.49797    
O46      O      0.686980000000     0.616730000000     0.652210000000    -0.507192   
O47      O      0.591380000000     0.666060000000     0.739490000000    -0.497939   
O48      O      0.718980000000     0.721450000000     0.715010000000    -0.506765   
O49      O      0.833680000000     0.906390000000     0.461100000000    -0.497928   
O50      O      0.845150000000     0.931360000000     0.541610000000    -0.512269   
O51      O      0.944910000000     0.964290000000     0.555370000000    -0.493959   
O52      O      0.942780000000     0.972480000000     0.403280000000    -0.507738   
O53      O      0.852200000000     0.015530000000     0.453360000000    -0.505584   
O54      O      0.921190000000     0.895030000000     0.412010000000    -0.492201   
O55      O      0.953960000000     0.893640000000     0.514270000000    -0.507893   
O56      O      0.917650000000     0.035700000000     0.490440000000    -0.489238   
O57      O      0.142260000000     0.228280000000     0.676180000000    -0.504213   
O58      O      0.199600000000     0.219920000000     0.730950000000    -0.507026   
O59      O      0.054990000000     0.181710000000     0.747610000000    -0.498665   
O60      O      0.094520000000     0.095410000000     0.726940000000    -0.49935    
O61      O      0.194520000000     0.117620000000     0.772910000000    -0.505162   
O62      O      0.138360000000     0.124770000000     0.664310000000    -0.499497   
O63      O      0.098840000000     0.230670000000     0.794460000000    -0.50028    
O64      O      0.149980000000     0.151680000000     0.831890000000    -0.503217   


