data_structure

_audit_creation_method RASPA-1.0
_audit_creation_date 2023-5-22
_audit_author_name 'Poobodin Mano'

_cell_length_a    24.1564
_cell_length_b    35.4073
_cell_length_c    32.295
_cell_angle_alpha 90
_cell_angle_beta  90
_cell_angle_gamma 90
_cell_volume      27622.3

_symmetry_cell_setting          triclinic
_symmetry_space_group_name_Hall 'P 1'
_symmetry_space_group_name_H-M  'P 1'
_symmetry_Int_Tables_number     1

_symmetry_equiv_pos_as_xyz 'x,y,z'

loop_
_atom_site_label
_atom_site_type_symbol
_atom_site_fract_x
_atom_site_fract_y
_atom_site_fract_z
_atom_site_charge
C1       C      0.971730000000     0.318780000000     0.967610000000     0.421895   
C2       C      0.092090000000     0.400250000000     0.933530000000     0.413411   
C3       C      0.051480000000     0.298910000000     0.848860000000     0.412425   
C4       C      0.949970000000     0.396830000000     0.852920000000     0.420015   
C5       C      0.288250000000     0.642240000000     0.215670000000     0.416939   
C6       C      0.233460000000     0.557140000000     0.110940000000     0.417883   
C7       C      0.385680000000     0.625180000000     0.112430000000     0.415454   
C8       C      0.340020000000     0.525080000000     0.202020000000     0.415384   
C9       C      0.647750000000     0.858350000000     0.930060000000     0.417317   
C10      C      0.608750000000     0.765800000000     0.826990000000     0.417129   
C11      C      0.505910000000     0.784170000000     0.927750000000     0.416578   
C12      C      0.550090000000     0.878870000000     0.828120000000     0.416666   
C13      C      0.894200000000     0.118390000000     0.050440000000     0.419961   
C14      C      0.755240000000     0.044570000000     0.084110000000     0.419198   
C15      C      0.873610000000     0.075850000000     0.180410000000     0.420632   
C16      C      0.763150000000     0.162630000000     0.129750000000     0.418665   
C17      C      0.677170000000     0.260020000000     0.338040000000     0.417098   
C18      C      0.556120000000     0.352560000000     0.301490000000     0.417028   
C19      C      0.531380000000     0.264500000000     0.402530000000     0.416695   
C20      C      0.640100000000     0.367740000000     0.410690000000     0.417483   
C21      C      0.847190000000     0.559270000000     0.671830000000     0.41428    
C22      C      0.711440000000     0.532580000000     0.573540000000     0.412575   
C23      C      0.688920000000     0.618630000000     0.658490000000     0.419635   
C24      C      0.837640000000     0.620520000000     0.563770000000     0.417414   
C25      C      0.995680000000     0.815980000000     0.451200000000     0.423041   
C26      C      0.974030000000     0.905030000000     0.355750000000     0.422637   
C27      C      0.125310000000     0.901040000000     0.433400000000     0.416015   
C28      C      0.094840000000     0.819260000000     0.333170000000     0.414644   
C29      C      0.282470000000     0.160720000000     0.708510000000     0.415911   
C30      C      0.343540000000     0.048080000000     0.709370000000     0.418062   
C31      C      0.250500000000     0.072140000000     0.601790000000     0.416568   
C32      C      0.394420000000     0.139210000000     0.609850000000     0.416493   
C33      C      0.183930000000     0.007260000000     0.524300000000    -0.0820861  
C34      C      0.198680000000     0.970280000000     0.502080000000    -0.0813484  
C35      C      0.150850000000     0.957030000000     0.474430000000     0.0107968  
C36      C      0.230900000000     0.020370000000     0.552840000000     0.0118493  
C37      C      0.913070000000     0.695730000000     0.504020000000    -0.0816061  
C38      C      0.925340000000     0.737930000000     0.509940000000    -0.0816756  
C39      C      0.956090000000     0.754710000000     0.472680000000     0.0114947  
C40      C      0.880750000000     0.680000000000     0.541110000000     0.0111767  
C41      C      0.456980000000     0.208260000000     0.483550000000    -0.0813635  
C42      C      0.470940000000     0.190650000000     0.525690000000    -0.0820183  
C43      C      0.419230000000     0.174390000000     0.546670000000     0.011805   
C44      C      0.508610000000     0.225470000000     0.463380000000     0.0110731  
C45      C      0.635890000000     0.444940000000     0.539100000000    -0.0796478  
C46      C      0.666170000000     0.434050000000     0.499020000000    -0.0799016  
C47      C      0.629920000000     0.408410000000     0.472040000000     0.0107442  
C48      C      0.672320000000     0.468690000000     0.567990000000     0.0106669  
C49      C      0.907610000000     0.979070000000     0.288950000000    -0.0819536  
C50      C      0.926920000000     0.014330000000     0.265340000000    -0.0813558  
C51      C      0.880360000000     0.030800000000     0.238600000000     0.0108092  
C52      C      0.954920000000     0.962130000000     0.314610000000     0.011943   
C53      C      0.720080000000     0.200730000000     0.213880000000    -0.0779427  
C54      C      0.728960000000     0.226570000000     0.251450000000    -0.0791038  
C55      C      0.706690000000     0.208440000000     0.291160000000     0.0136321  
C56      C      0.744920000000     0.218030000000     0.174530000000     0.0138435  
C57      C      0.474330000000     0.953440000000     0.768000000000    -0.0815452  
C58      C      0.417460000000     0.972690000000     0.769650000000    -0.0817533  
C59      C      0.410220000000     0.000360000000     0.733550000000     0.0114766  
C60      C      0.481770000000     0.925610000000     0.803930000000     0.0113022  
C61      C      0.623850000000     0.704490000000     0.733670000000    -0.0795518  
C62      C      0.587010000000     0.689890000000     0.698350000000    -0.0791647  
C63      C      0.620980000000     0.670440000000     0.664330000000     0.0102501  
C64      C      0.589570000000     0.724940000000     0.766730000000     0.0106233  
C65      C      0.711320000000     0.932340000000     0.996770000000    -0.0812512  
C66      C      0.692500000000     0.961340000000     0.029150000000    -0.081939   
C67      C      0.738840000000     0.989530000000     0.039050000000     0.0116211  
C68      C      0.664620000000     0.904730000000     0.985900000000     0.0108856  
C69      C      0.173620000000     0.748130000000     0.270290000000    -0.0815515  
C70      C      0.220250000000     0.719370000000     0.277180000000    -0.0815168  
C71      C      0.230710000000     0.696010000000     0.237950000000     0.0109696  
C72      C      0.161450000000     0.770860000000     0.309690000000     0.0111617  
C73      C      0.455700000000     0.690240000000     0.036760000000    -0.0819121  
C74      C      0.437360000000     0.718780000000     0.003740000000    -0.0816916  
C75      C      0.487210000000     0.738150000000     0.983370000000     0.0113936  
C76      C      0.405640000000     0.670910000000     0.056890000000     0.0114225  
C77      C      0.415090000000     0.442660000000     0.248740000000    -0.0814435  
C78      C      0.470410000000     0.422190000000     0.242220000000    -0.0818008  
C79      C      0.479710000000     0.392210000000     0.275750000000     0.0112011  
C80      C      0.405850000000     0.473380000000     0.216010000000     0.0111159  
C81      C      0.197890000000     0.224800000000     0.776250000000    -0.0815221  
C82      C      0.136290000000     0.233740000000     0.782510000000    -0.0815738  
C83      C      0.127570000000     0.261990000000     0.817920000000     0.0108012  
C84      C      0.206250000000     0.196200000000     0.741130000000     0.0109787  
C85      C      0.940910000000     0.232860000000     0.995930000000    -0.0795772  
C86      C      0.952340000000     0.195340000000     0.018180000000    -0.077033   
C87      C      0.925530000000     0.162020000000     0.995410000000     0.0123165  
C88      C      0.968850000000     0.266040000000     0.018160000000     0.0136224  
C89      C      0.914050000000     0.501800000000     0.754350000000    -0.0815568  
C90      C      0.907870000000     0.460790000000     0.769100000000    -0.0801992  
C91      C      0.932530000000     0.455230000000     0.812440000000     0.00988573 
C92      C      0.890570000000     0.506990000000     0.710560000000     0.0102435  
C93      C      0.156250000000     0.494990000000     0.037150000000    -0.0816074  
C94      C      0.169240000000     0.470460000000     0.999190000000    -0.0817625  
C95      C      0.118800000000     0.446790000000     0.986560000000     0.011357   
C96      C      0.206790000000     0.518110000000     0.050730000000     0.0111438  
H1       H      0.269500000000     0.024520000000     0.534610000000     0.0362916  
H2       H      0.239690000000     0.998350000000     0.576530000000     0.0376993  
H3       H      0.112760000000     0.953240000000     0.493370000000     0.0415881  
H4       H      0.141620000000     0.978920000000     0.450720000000     0.0358035  
H5       H      0.207740000000     0.948000000000     0.525400000000     0.0478304  
H6       H      0.236210000000     0.974660000000     0.482710000000     0.0460645  
H7       H      0.205330000000     0.911860000000     0.452990000000     0.101672   
H8       H      0.175630000000     0.029610000000     0.500890000000     0.0470246  
H9       H      0.145870000000     0.003070000000     0.543140000000     0.0480423  
H10      H      0.179360000000     0.069510000000     0.566370000000     0.103499   
H11      H      0.840410000000     0.694960000000     0.544020000000     0.0415601  
H12      H      0.904180000000     0.685250000000     0.570200000000     0.0369005  
H13      H      0.994660000000     0.738460000000     0.466620000000     0.0358494  
H14      H      0.929950000000     0.752640000000     0.444410000000     0.0392884  
H15      H      0.951140000000     0.741690000000     0.538190000000     0.0468926  
H16      H      0.885850000000     0.753580000000     0.514330000000     0.0483353  
H17      H      0.962570000000     0.806400000000     0.509180000000     0.102524   
H18      H      0.888260000000     0.691550000000     0.475370000000     0.0484517  
H19      H      0.952750000000     0.680050000000     0.500800000000     0.0467075  
H20      H      0.891270000000     0.623960000000     0.513880000000     0.102467   
H21      H      0.541020000000     0.203410000000     0.459690000000     0.0341335  
H22      H      0.526010000000     0.247880000000     0.483760000000     0.0419582  
H23      H      0.388800000000     0.197320000000     0.552750000000     0.0376913  
H24      H      0.398780000000     0.153610000000     0.525820000000     0.0362663  
H25      H      0.489440000000     0.212460000000     0.546270000000     0.0478196  
H26      H      0.501720000000     0.167630000000     0.521200000000     0.0469591  
H27      H      0.474750000000     0.154180000000     0.595210000000     0.103629   
H28      H      0.439700000000     0.186130000000     0.462790000000     0.0461005  
H29      H      0.425340000000     0.230770000000     0.487680000000     0.0483334  
H30      H      0.458840000000     0.233830000000     0.407730000000     0.102574   
H31      H      0.713140000000     0.454810000000     0.572810000000     0.0411606  
H32      H      0.652220000000     0.470160000000     0.598930000000     0.0365343  
H33      H      0.616510000000     0.383280000000     0.490160000000     0.0416002  
H34      H      0.591870000000     0.423840000000     0.462550000000     0.0347743  
H35      H      0.705050000000     0.418790000000     0.506830000000     0.0502276  
H36      H      0.677000000000     0.459910000000     0.481250000000     0.0494384  
H37      H      0.696150000000     0.409680000000     0.426030000000     0.103539   
H38      H      0.597290000000     0.460700000000     0.531730000000     0.0459979  
H39      H      0.623950000000     0.418760000000     0.555910000000     0.0437322  
H40      H      0.660030000000     0.516130000000     0.525580000000     0.102029   
H41      H      0.969440000000     0.983070000000     0.337880000000     0.0360984  
H42      H      0.990730000000     0.955530000000     0.294150000000     0.0415784  
H43      H      0.864070000000     0.008720000000     0.217300000000     0.0407727  
H44      H      0.845600000000     0.040030000000     0.258760000000     0.0334894  
H45      H      0.962340000000     0.006760000000     0.244940000000     0.0487578  
H46      H      0.941050000000     0.036110000000     0.287810000000     0.0459027  
H47      H      0.935510000000     0.077850000000     0.224570000000     0.10266    
H48      H      0.872820000000     0.986710000000     0.309910000000     0.0463039  
H49      H      0.892720000000     0.957490000000     0.266520000000     0.0486127  
H50      H      0.895300000000     0.920490000000     0.337000000000     0.102707   
H51      H      0.790420000000     0.221310000000     0.178550000000     0.0397328  
H52      H      0.726190000000     0.246310000000     0.169220000000     0.0278156  
H53      H      0.661960000000     0.201770000000     0.287310000000     0.0408677  
H54      H      0.729720000000     0.181770000000     0.297010000000     0.0267273  
H55      H      0.707390000000     0.253910000000     0.246120000000     0.0570827  
H56      H      0.773950000000     0.232310000000     0.255360000000     0.0493913  
H57      H      0.752330000000     0.232040000000     0.342650000000     0.10335    
H58      H      0.739820000000     0.172870000000     0.219800000000     0.0553136  
H59      H      0.674940000000     0.196200000000     0.209170000000     0.0500316  
H60      H      0.700050000000     0.201220000000     0.119560000000     0.104392   
H61      H      0.448820000000     0.903670000000     0.802880000000     0.0409087  
H62      H      0.477590000000     0.940690000000     0.833990000000     0.0371161  
H63      H      0.444090000000     0.021670000000     0.733900000000     0.0403409  
H64      H      0.413100000000     0.984950000000     0.703600000000     0.0378223  
H65      H      0.413310000000     0.988370000000     0.799350000000     0.0477759  
H66      H      0.384320000000     0.950920000000     0.768120000000     0.0474101  
H67      H      0.327610000000     0.011720000000     0.758070000000     0.102224   
H68      H      0.478620000000     0.937900000000     0.738230000000     0.0478833  
H69      H      0.507380000000     0.975270000000     0.769650000000     0.0472929  
H70      H      0.565640000000     0.916620000000     0.780710000000     0.102454   
H71      H      0.558030000000     0.705340000000     0.779640000000     0.0331936  
H72      H      0.567140000000     0.749150000000     0.752520000000     0.0414961  
H73      H      0.593010000000     0.662970000000     0.638270000000     0.0339478  
H74      H      0.652530000000     0.690250000000     0.651740000000     0.0417994  
H75      H      0.564420000000     0.714040000000     0.684240000000     0.0432905  
H76      H      0.555780000000     0.669740000000     0.710720000000     0.0450522  
H77      H      0.633460000000     0.623330000000     0.706890000000     0.10136    
H78      H      0.645980000000     0.680450000000     0.748380000000     0.0500142  
H79      H      0.655150000000     0.724420000000     0.720980000000     0.050989   
H80      H      0.663700000000     0.725690000000     0.805240000000     0.104295   
H81      H      0.628130000000     0.920600000000     0.974040000000     0.0410323  
H82      H      0.651410000000     0.889340000000     0.014230000000     0.0335385  
H83      H      0.776290000000     0.974200000000     0.050000000000     0.0375849  
H84      H      0.750790000000     0.005230000000     0.010570000000     0.0381761  
H85      H      0.680340000000     0.946360000000     0.058030000000     0.0469736  
H86      H      0.655960000000     0.977090000000     0.017260000000     0.047537   
H87      H      0.682480000000     0.013840000000     0.084700000000     0.103358   
H88      H      0.724520000000     0.947270000000     0.968110000000     0.0488665  
H89      H      0.747250000000     0.916230000000     0.009100000000     0.0467085  
H90      H      0.725580000000     0.871000000000     0.952700000000     0.103977   
H91      H      0.199640000000     0.785490000000     0.320320000000     0.0372007  
H92      H      0.148180000000     0.751560000000     0.335010000000     0.0407023  
H93      H      0.192550000000     0.680260000000     0.229310000000     0.0420831  
H94      H      0.240940000000     0.715060000000     0.211650000000     0.0354242  
H95      H      0.208850000000     0.700000000000     0.302920000000     0.0485348  
H96      H      0.258860000000     0.734590000000     0.285800000000     0.0465543  
H97      H      0.301850000000     0.671720000000     0.270020000000     0.102478   
H98      H      0.185850000000     0.767880000000     0.245100000000     0.0466177  
H99      H      0.135270000000     0.733120000000     0.260660000000     0.0486079  
H100     H      0.105550000000     0.804700000000     0.271770000000     0.102371   
H101     H      0.381170000000     0.655640000000     0.032990000000     0.0373566  
H102     H      0.377840000000     0.692470000000     0.070900000000     0.0372878  
H103     H      0.512190000000     0.753120000000     0.007200000000     0.0366273  
H104     H      0.514590000000     0.716650000000     0.968780000000     0.0377186  
H105     H      0.410640000000     0.740660000000     0.018310000000     0.0468946  
H106     H      0.412910000000     0.703980000000     0.979470000000     0.0472298  
H107     H      0.427070000000     0.770740000000     0.947740000000     0.103043   
H108     H      0.482500000000     0.668370000000     0.022270000000     0.0473172  
H109     H      0.479980000000     0.705060000000     0.061100000000     0.0472142  
H110     H      0.465110000000     0.639260000000     0.094190000000     0.103038   
H111     H      0.404470000000     0.460470000000     0.184630000000     0.0364723  
H112     H      0.440940000000     0.493750000000     0.216310000000     0.0417192  
H113     H      0.477000000000     0.405430000000     0.306960000000     0.0403404  
H114     H      0.446640000000     0.370420000000     0.273930000000     0.0366052  
H115     H      0.504840000000     0.443030000000     0.243430000000     0.0487219  
H116     H      0.470630000000     0.408400000000     0.211270000000     0.0467624  
H117     H      0.555330000000     0.376470000000     0.243000000000     0.102478   
H118     H      0.380620000000     0.421890000000     0.247090000000     0.0466568  
H119     H      0.414710000000     0.455990000000     0.279940000000     0.0483315  
H120     H      0.326340000000     0.483780000000     0.246040000000     0.102742   
H121     H      0.188150000000     0.207350000000     0.711910000000     0.0370978  
H122     H      0.184250000000     0.169420000000     0.748510000000     0.0411998  
H123     H      0.142530000000     0.249690000000     0.847570000000     0.0378937  
H124     H      0.152090000000     0.288070000000     0.812140000000     0.0395911  
H125     H      0.113440000000     0.207260000000     0.789720000000     0.0473141  
H126     H      0.119150000000     0.245880000000     0.753440000000     0.0475372  
H127     H      0.039370000000     0.258380000000     0.803730000000     0.10212    
H128     H      0.220470000000     0.251280000000     0.768600000000     0.0470206  
H129     H      0.215380000000     0.212960000000     0.805350000000     0.0479994  
H130     H      0.295060000000     0.204770000000     0.749480000000     0.102182   
H131     H      0.014560000000     0.263710000000     0.014710000000     0.0398201  
H132     H      0.958160000000     0.265040000000     0.051640000000     0.0273439  
H133     H      0.881100000000     0.168280000000     0.989380000000     0.0420601  
H134     H      0.947040000000     0.157900000000     0.965300000000     0.0275524  
H135     H      0.935470000000     0.196940000000     0.050190000000     0.0535622  
H136     H      0.997760000000     0.190510000000     0.020210000000     0.0470917  
H137     H      0.964590000000     0.109870000000     0.014780000000     0.103643   
H138     H      0.956440000000     0.231370000000     0.963550000000     0.0537369  
H139     H      0.895420000000     0.237770000000     0.995020000000     0.0515532  
H140     H      0.914290000000     0.314290000000     0.014970000000     0.104447   
H141     H      0.849990000000     0.492280000000     0.707810000000     0.044128   
H142     H      0.919100000000     0.493950000000     0.687650000000     0.0349475  
H143     H      0.978350000000     0.458140000000     0.811010000000     0.0429641  
H144     H      0.916360000000     0.477510000000     0.833460000000     0.0314513  
H145     H      0.929060000000     0.441430000000     0.747090000000     0.049113   
H146     H      0.863080000000     0.453470000000     0.769720000000     0.047876   
H147     H      0.875210000000     0.409540000000     0.825280000000     0.104095   
H148     H      0.891250000000     0.520590000000     0.776080000000     0.0487385  
H149     H      0.958460000000     0.510100000000     0.754500000000     0.0459277  
H150     H      0.906570000000     0.567320000000     0.717160000000     0.101975   
H151     H      0.220210000000     0.536920000000     0.025050000000     0.0349364  
H152     H      0.241950000000     0.498890000000     0.057960000000     0.0396253  
H153     H      0.106530000000     0.427830000000     0.012470000000     0.0378839  
H154     H      0.082930000000     0.465600000000     0.980100000000     0.037906   
H155     H      0.204310000000     0.451200000000     0.006400000000     0.0471565  
H156     H      0.181420000000     0.488940000000     0.972860000000     0.0470628  
H157     H      0.168760000000     0.426260000000     0.934870000000     0.103109   
H158     H      0.121690000000     0.514580000000     0.029570000000     0.0468291  
H159     H      0.143090000000     0.476600000000     0.063290000000     0.0482033  
H160     H      0.152240000000     0.546500000000     0.094620000000     0.103477   
In1      In     0.015890000000     0.353370000000     0.900840000000     2.39075    
In2      In     0.311890000000     0.587820000000     0.159900000000     2.40343    
In3      In     0.577980000000     0.821580000000     0.878870000000     2.40679    
In4      In     0.822130000000     0.100280000000     0.111210000000     2.39199    
In5      In     0.601560000000     0.311220000000     0.362770000000     2.40548    
In6      In     0.771040000000     0.583360000000     0.616830000000     2.3997     
In7      In     0.047160000000     0.859700000000     0.394300000000     2.38796    
In8      In     0.317670000000     0.105190000000     0.657650000000     2.399      
N1       N      0.164420000000     0.921570000000     0.453350000000    -0.218294   
N2       N      0.216550000000     0.055850000000     0.573580000000    -0.218115   
N3       N      0.970510000000     0.794330000000     0.480200000000    -0.219929   
N4       N      0.871070000000     0.639310000000     0.537080000000    -0.217833   
N5       N      0.433390000000     0.155720000000     0.585740000000    -0.218567   
N6       N      0.495780000000     0.241240000000     0.422550000000    -0.218246   
N7       N      0.659520000000     0.396100000000     0.434800000000    -0.218509   
N8       N      0.680350000000     0.507210000000     0.552450000000    -0.217098   
N9       N      0.900100000000     0.063380000000     0.214780000000    -0.21921    
N10      N      0.937260000000     0.927760000000     0.336170000000    -0.217978   
N11      N      0.715180000000     0.234010000000     0.326180000000    -0.219086   
N12      N      0.733110000000     0.193890000000     0.138840000000    -0.218989   
N13      N      0.356680000000     0.019690000000     0.735710000000    -0.218642   
N14      N      0.536200000000     0.907440000000     0.802240000000    -0.218223   
N15      N      0.647480000000     0.635850000000     0.679490000000    -0.219157   
N16      N      0.624950000000     0.738190000000     0.800610000000    -0.218307   
N17      N      0.721520000000     0.016450000000     0.070970000000    -0.218449   
N18      N      0.683330000000     0.877100000000     0.955150000000    -0.218438   
N19      N      0.276510000000     0.669420000000     0.243870000000    -0.218463   
N20      N      0.118330000000     0.799130000000     0.302120000000    -0.217451   
N21      N      0.469290000000     0.765360000000     0.951920000000    -0.218768   
N22      N      0.422960000000     0.644100000000     0.088930000000    -0.218545   
N23      N      0.533600000000     0.373730000000     0.270860000000    -0.218382   
N24      N      0.353920000000     0.493640000000     0.223520000000    -0.217718   
N25      N      0.068960000000     0.271940000000     0.822140000000    -0.217777   
N26      N      0.265140000000     0.188410000000     0.734400000000    -0.218234   
N27      N      0.930800000000     0.127620000000     0.020250000000    -0.219338   
N28      N      0.948760000000     0.301750000000     0.001030000000    -0.219957   
N29      N      0.916130000000     0.418480000000     0.829340000000    -0.21881    
N30      N      0.883870000000     0.547140000000     0.700660000000    -0.21746    
N31      N      0.130400000000     0.424010000000     0.949690000000    -0.21742    
N32      N      0.193650000000     0.541390000000     0.086950000000    -0.218534   
O1       O      0.999700000000     0.405290000000     0.860190000000    -0.508355   
O2       O      0.933420000000     0.366680000000     0.869470000000    -0.495613   
O3       O      0.044800000000     0.395810000000     0.949430000000    -0.503694   
O4       O      0.013350000000     0.305690000000     0.948880000000    -0.510673   
O5       O      0.001320000000     0.308370000000     0.851340000000    -0.504423   
O6       O      0.952520000000     0.349030000000     0.953010000000    -0.499587   
O7       O      0.101290000000     0.381190000000     0.901250000000    -0.488621   
O8       O      0.083950000000     0.316480000000     0.872650000000    -0.489676   
O9       O      0.295640000000     0.542750000000     0.208920000000    -0.506216   
O10      O      0.370370000000     0.538800000000     0.173980000000    -0.493591   
O11      O      0.221780000000     0.576780000000     0.142300000000    -0.497947   
O12      O      0.260090000000     0.637490000000     0.183210000000    -0.497358   
O13      O      0.400340000000     0.602430000000     0.140350000000    -0.496367   
O14      O      0.328310000000     0.619830000000     0.220210000000    -0.507186   
O15      O      0.284470000000     0.553080000000     0.103820000000    -0.508681   
O16      O      0.334110000000     0.629120000000     0.108110000000    -0.508239   
O17      O      0.596800000000     0.863080000000     0.826580000000    -0.509538   
O18      O      0.517390000000     0.866110000000     0.855180000000    -0.494034   
O19      O      0.639420000000     0.777190000000     0.855990000000    -0.493722   
O20      O      0.664400000000     0.834860000000     0.903540000000    -0.494924   
O21      O      0.490420000000     0.807410000000     0.900590000000    -0.496942   
O22      O      0.596050000000     0.863240000000     0.931270000000    -0.511101   
O23      O      0.562460000000     0.782080000000     0.824180000000    -0.510334   
O24      O      0.557570000000     0.779680000000     0.930640000000    -0.510233   
O25      O      0.752490000000     0.142370000000     0.098670000000    -0.495543   
O26      O      0.803390000000     0.151710000000     0.151620000000    -0.506371   
O27      O      0.802950000000     0.049900000000     0.069310000000    -0.503712   
O28      O      0.852630000000     0.138450000000     0.058930000000    -0.508364   
O29      O      0.891210000000     0.103460000000     0.159600000000    -0.500159   
O30      O      0.899710000000     0.089120000000     0.072250000000    -0.497309   
O31      O      0.741010000000     0.067130000000     0.112350000000    -0.497239   
O32      O      0.830040000000     0.060680000000     0.166810000000    -0.508033   
O33      O      0.665140000000     0.356970000000     0.378540000000    -0.501202   
O34      O      0.595950000000     0.350220000000     0.418780000000    -0.504185   
O35      O      0.602620000000     0.336780000000     0.297660000000    -0.503031   
O36      O      0.631450000000     0.264270000000     0.319720000000    -0.505685   
O37      O      0.576970000000     0.274690000000     0.417970000000    -0.503459   
O38      O      0.685240000000     0.281630000000     0.368450000000    -0.502116   
O39      O      0.532340000000     0.347410000000     0.335790000000    -0.503686   
O40      O      0.520970000000     0.277570000000     0.367060000000    -0.500127   
O41      O      0.830290000000     0.585300000000     0.561510000000    -0.506297   
O42      O      0.811830000000     0.636960000000     0.592570000000    -0.4991     
O43      O      0.736840000000     0.524190000000     0.606380000000    -0.493145   
O44      O      0.819590000000     0.536890000000     0.649530000000    -0.492059   
O45      O      0.707110000000     0.630670000000     0.624400000000    -0.500216   
O46      O      0.837350000000     0.593840000000     0.666160000000    -0.504872   
O47      O      0.716260000000     0.566440000000     0.561970000000    -0.502642   
O48      O      0.711880000000     0.589140000000     0.671790000000    -0.513003   
O49      O      0.058400000000     0.843930000000     0.326270000000    -0.503486   
O50      O      0.107650000000     0.814770000000     0.370750000000    -0.488098   
O51      O      0.959250000000     0.875310000000     0.374290000000    -0.504849   
O52      O      0.009900000000     0.849520000000     0.458440000000    -0.509436   
O53      O      0.136560000000     0.870610000000     0.415030000000    -0.49907    
O54      O      0.006800000000     0.804200000000     0.415330000000    -0.50388    
O55      O      0.025320000000     0.911900000000     0.356450000000    -0.497423   
O56      O      0.075200000000     0.910820000000     0.432010000000    -0.497016   
O57      O      0.406790000000     0.121850000000     0.642630000000    -0.49293    
O58      O      0.343540000000     0.139840000000     0.601090000000    -0.508693   
O59      O      0.297970000000     0.065300000000     0.711420000000    -0.510365   
O60      O      0.333060000000     0.154090000000     0.702510000000    -0.508852   
O61      O      0.238460000000     0.102940000000     0.619190000000    -0.493114   
O62      O      0.249430000000     0.139710000000     0.688920000000    -0.492691   
O63      O      0.375920000000     0.059260000000     0.681300000000    -0.495685   
O64      O      0.296210000000     0.057800000000     0.612350000000    -0.508051   


