data_structure

_audit_creation_method RASPA-1.0
_audit_creation_date 2023-5-22
_audit_author_name 'Poobodin Mano'

_cell_length_a    21.3086
_cell_length_b    26.1281
_cell_length_c    28.0231
_cell_angle_alpha 90
_cell_angle_beta  90
_cell_angle_gamma 90
_cell_volume      15602

_symmetry_cell_setting          triclinic
_symmetry_space_group_name_Hall 'P 1'
_symmetry_space_group_name_H-M  'P 1'
_symmetry_Int_Tables_number     1

_symmetry_equiv_pos_as_xyz 'x,y,z'

loop_
_atom_site_label
_atom_site_type_symbol
_atom_site_fract_x
_atom_site_fract_y
_atom_site_fract_z
_atom_site_charge
C1       C      0.026240000000     0.421160000000     0.889100000000     0.414208   
C2       C      0.911980000000     0.423620000000     0.763140000000     0.416509   
C3       C      0.036850000000     0.297920000000     0.764040000000     0.414603   
C4       C      0.910580000000     0.290520000000     0.881310000000     0.415812   
C5       C      0.153110000000     0.545850000000     0.016940000000     0.40914    
C6       C      0.156260000000     0.669280000000     0.140500000000     0.408718   
C7       C      0.276980000000     0.541500000000     0.135780000000     0.410324   
C8       C      0.273730000000     0.673680000000     0.016980000000     0.416208   
C9       C      0.399470000000     0.910780000000     0.756560000000     0.409341   
C10      C      0.399860000000     0.796230000000     0.886880000000     0.409313   
C11      C      0.520520000000     0.787660000000     0.760570000000     0.414798   
C12      C      0.523020000000     0.917600000000     0.880520000000     0.409729   
C13      C      0.779230000000     0.163720000000     0.004640000000     0.409413   
C14      C      0.649560000000     0.163350000000     0.130650000000     0.414271   
C15      C      0.649050000000     0.046770000000     0.005090000000     0.414486   
C16      C      0.781090000000     0.047210000000     0.130370000000     0.414269   
C17      C      0.404930000000     0.295560000000     0.386750000000     0.408767   
C18      C      0.402400000000     0.411240000000     0.259650000000     0.414279   
C19      C      0.535230000000     0.412090000000     0.382980000000     0.415069   
C20      C      0.526750000000     0.289870000000     0.259350000000     0.409311   
C21      C      0.781140000000     0.546110000000     0.635650000000     0.409148   
C22      C      0.772910000000     0.666510000000     0.509330000000     0.409396   
C23      C      0.658040000000     0.540040000000     0.510490000000     0.409242   
C24      C      0.651040000000     0.662600000000     0.635020000000     0.409402   
C25      C      0.028390000000     0.795460000000     0.266480000000     0.413701   
C26      C      0.017300000000     0.922430000000     0.386160000000     0.413829   
C27      C      0.903040000000     0.921320000000     0.260030000000     0.411069   
C28      C      0.894040000000     0.795880000000     0.382220000000     0.416917   
C29      C      0.158000000000     0.169680000000     0.636080000000     0.409312   
C30      C      0.273960000000     0.171890000000     0.513100000000     0.415809   
C31      C      0.271990000000     0.037910000000     0.631170000000     0.416126   
C32      C      0.148540000000     0.046600000000     0.511870000000     0.409155   
C33      C      0.144740000000     0.991160000000     0.444940000000     0.0330112  
C34      C      0.051640000000     0.011270000000     0.486130000000     0.0231516  
C35      C      0.110870000000     0.960260000000     0.413690000000     0.0312469  
C36      C      0.016870000000     0.980210000000     0.454850000000     0.0610164  
C37      C      0.863550000000     0.692240000000     0.466430000000     0.0330689  
C38      C      0.768700000000     0.737100000000     0.456080000000     0.0228081  
C39      C      0.893040000000     0.725050000000     0.434270000000     0.0308102  
C40      C      0.797840000000     0.770470000000     0.423570000000     0.0606411  
C41      C      0.399410000000     0.224340000000     0.439110000000     0.0333483  
C42      C      0.311710000000     0.278320000000     0.430240000000     0.0228308  
C43      C      0.365700000000     0.193800000000     0.470800000000     0.0311136  
C44      C      0.277170000000     0.247900000000     0.462190000000     0.0610041  
C45      C      0.567250000000     0.515180000000     0.467400000000     0.0329799  
C46      C      0.660890000000     0.468350000000     0.458350000000     0.0227132  
C47      C      0.537360000000     0.482730000000     0.435190000000     0.0309637  
C48      C      0.631240000000     0.435210000000     0.425850000000     0.0603444  
C49      C      0.815020000000     0.942060000000     0.212060000000     0.0335578  
C50      C      0.903650000000     0.995860000000     0.211480000000     0.0222421  
C51      C      0.785250000000     0.974110000000     0.179440000000     0.0307356  
C52      C      0.874130000000     0.028600000000     0.178570000000     0.0605705  
C53      C      0.615090000000     0.269140000000     0.211590000000     0.033115   
C54      C      0.526910000000     0.214850000000     0.211540000000     0.022841   
C55      C      0.645090000000     0.236870000000     0.179250000000     0.0309336  
C56      C      0.556620000000     0.181930000000     0.178920000000     0.0603225  
C57      C      0.397280000000     0.979620000000     0.701400000000     0.0331427  
C58      C      0.305240000000     0.932310000000     0.716060000000     0.0228454  
C59      C      0.364420000000     0.011070000000     0.669970000000     0.0312477  
C60      C      0.271540000000     0.963650000000     0.684340000000     0.0609756  
C61      C      0.645810000000     0.733990000000     0.687170000000     0.0332649  
C62      C      0.556950000000     0.681610000000     0.676840000000     0.0226463  
C63      C      0.612240000000     0.764890000000     0.718650000000     0.0307673  
C64      C      0.522510000000     0.712440000000     0.708560000000     0.0610054  
C65      C      0.614480000000     0.941630000000     0.923360000000     0.0330277  
C66      C      0.523150000000     0.991950000000     0.929170000000     0.0226342  
C67      C      0.645280000000     0.974580000000     0.954700000000     0.0308186  
C68      C      0.553650000000     0.025540000000     0.960740000000     0.0604741  
C69      C      0.062850000000     0.708770000000     0.167880000000     0.033343   
C70      C      0.157740000000     0.723100000000     0.208800000000     0.0227034  
C71      C      0.031580000000     0.740490000000     0.199940000000     0.0308707  
C72      C      0.126730000000     0.755130000000     0.241520000000     0.0600929  
C73      C      0.397440000000     0.727500000000     0.942160000000     0.0332761  
C74      C      0.306860000000     0.777440000000     0.930100000000     0.0227886  
C75      C      0.364940000000     0.697220000000     0.974780000000     0.0310932  
C76      C      0.273570000000     0.747360000000     0.963100000000     0.0610083  
C77      C      0.368850000000     0.515940000000     0.177260000000     0.0334067  
C78      C      0.276320000000     0.467360000000     0.184740000000     0.022648   
C79      C      0.399510000000     0.482750000000     0.208440000000     0.0307547  
C80      C      0.306680000000     0.433500000000     0.216150000000     0.0602231  
C81      C      0.066250000000     0.210100000000     0.665390000000     0.0335288  
C82      C      0.163320000000     0.225480000000     0.702880000000     0.0230492  
C83      C      0.036720000000     0.242440000000     0.697850000000     0.0313458  
C84      C      0.134100000000     0.258260000000     0.735910000000     0.0603114  
C85      C      0.784840000000     0.235960000000     0.953590000000     0.0332268  
C86      C      0.872700000000     0.182010000000     0.961760000000     0.022677   
C87      C      0.818530000000     0.267170000000     0.922480000000     0.0313774  
C88      C      0.907280000000     0.213210000000     0.930460000000     0.0611526  
C89      C      0.786630000000     0.475730000000     0.688900000000     0.0331821  
C90      C      0.875290000000     0.528190000000     0.677870000000     0.022542   
C91      C      0.820270000000     0.445500000000     0.720870000000     0.0311264  
C92      C      0.909780000000     0.498050000000     0.710140000000     0.0611132  
C93      C      0.151390000000     0.491140000000     0.949440000000     0.0333202  
C94      C      0.057680000000     0.508080000000     0.991070000000     0.0230468  
C95      C      0.118620000000     0.460040000000     0.917680000000     0.0311876  
C96      C      0.024010000000     0.476810000000     0.959280000000     0.0612077  
H1       H      0.137190000000     0.941100000000     0.385780000000     0.047809   
H2       H      0.195020000000     0.994360000000     0.439690000000     0.0440295  
H3       H      0.027300000000     0.031290000000     0.514670000000     0.0506853  
H4       H      0.942400000000     0.718230000000     0.427230000000     0.0451764  
H5       H      0.891250000000     0.661950000000     0.482450000000     0.0454115  
H6       H      0.719230000000     0.742400000000     0.464210000000     0.0484074  
H7       H      0.389780000000     0.160830000000     0.485560000000     0.0470694  
H8       H      0.447420000000     0.213620000000     0.431020000000     0.0445416  
H9       H      0.289520000000     0.311820000000     0.414570000000     0.0501392  
H10      H      0.488360000000     0.490540000000     0.427600000000     0.0457923  
H11      H      0.540190000000     0.546180000000     0.482880000000     0.0455894  
H12      H      0.710020000000     0.462120000000     0.467060000000     0.0482628  
H13      H      0.738370000000     0.963300000000     0.168230000000     0.0461604  
H14      H      0.789930000000     0.908390000000     0.224270000000     0.0457701  
H15      H      0.950700000000     0.005070000000     0.223790000000     0.0479701  
H16      H      0.691880000000     0.247780000000     0.167880000000     0.0461113  
H17      H      0.639890000000     0.303070000000     0.223500000000     0.0452814  
H18      H      0.479940000000     0.205500000000     0.223950000000     0.0487132  
H19      H      0.390600000000     0.041640000000     0.652940000000     0.0469738  
H20      H      0.446740000000     0.987320000000     0.707040000000     0.0442226  
H21      H      0.280980000000     0.901110000000     0.733920000000     0.0501786  
H22      H      0.636880000000     0.797300000000     0.733940000000     0.0468303  
H23      H      0.694270000000     0.743940000000     0.679780000000     0.0443     
H24      H      0.534230000000     0.648650000000     0.660640000000     0.0497909  
H25      H      0.693630000000     0.965530000000     0.963390000000     0.0458509  
H26      H      0.640240000000     0.909060000000     0.909500000000     0.0450877  
H27      H      0.474630000000     0.999500000000     0.919430000000     0.0485594  
H28      H      0.981620000000     0.745800000000     0.194380000000     0.0455837  
H29      H      0.035770000000     0.691300000000     0.139440000000     0.046355   
H30      H      0.207850000000     0.716570000000     0.212900000000     0.0478719  
H31      H      0.390640000000     0.665990000000     0.991170000000     0.0470296  
H32      H      0.446180000000     0.718290000000     0.935000000000     0.0442731  
H33      H      0.283050000000     0.809230000000     0.912790000000     0.0500613  
H34      H      0.448280000000     0.491020000000     0.216390000000     0.045717   
H35      H      0.395160000000     0.547910000000     0.162800000000     0.0453916  
H36      H      0.227400000000     0.460580000000     0.175680000000     0.0480902  
H37      H      0.986460000000     0.247500000000     0.693850000000     0.0455794  
H38      H      0.037620000000     0.191960000000     0.638220000000     0.0465399  
H39      H      0.213650000000     0.219170000000     0.705410000000     0.0478783  
H40      H      0.794390000000     0.300380000000     0.908250000000     0.0472259  
H41      H      0.736740000000     0.246400000000     0.961690000000     0.0446772  
H42      H      0.894890000000     0.148210000000     0.976840000000     0.0496383  
H43      H      0.795720000000     0.413290000000     0.736610000000     0.047091   
H44      H      0.738240000000     0.465500000000     0.681620000000     0.0443751  
H45      H      0.897880000000     0.560930000000     0.661190000000     0.0498081  
H46      H      0.145550000000     0.442140000000     0.889390000000     0.0479277  
H47      H      0.201500000000     0.495720000000     0.944190000000     0.0441691  
H48      H      0.032680000000     0.526840000000     0.020020000000     0.0505623  
In1      In     0.970770000000     0.358680000000     0.824260000000     2.43151    
In2      In     0.216040000000     0.607650000000     0.077690000000     2.42052    
In3      In     0.461600000000     0.853010000000     0.821200000000     2.42193    
In4      In     0.715050000000     0.105230000000     0.067550000000     2.42479    
In5      In     0.468150000000     0.352460000000     0.322090000000     2.42189    
In6      In     0.715860000000     0.603740000000     0.572680000000     2.41805    
In7      In     0.960220000000     0.858520000000     0.323410000000     2.42294    
In8      In     0.214060000000     0.106300000000     0.572920000000     2.42548    
N1       N      0.115120000000     0.016450000000     0.481080000000    -0.174669   
N2       N      0.047120000000     0.954250000000     0.418250000000    -0.1784     
N3       N      0.801640000000     0.698470000000     0.477380000000    -0.174915   
N4       N      0.861030000000     0.764460000000     0.412840000000    -0.179003   
N5       N      0.372230000000     0.266240000000     0.418680000000    -0.174549   
N6       N      0.304520000000     0.204770000000     0.482350000000    -0.178989   
N7       N      0.628830000000     0.507950000000     0.478890000000    -0.174862   
N8       N      0.568540000000     0.442590000000     0.414230000000    -0.17887    
N9       N      0.874020000000     0.952980000000     0.227980000000    -0.175287   
N10      N      0.814040000000     0.017460000000     0.162450000000    -0.178643   
N11      N      0.556180000000     0.258090000000     0.227620000000    -0.174994   
N12      N      0.616590000000     0.193210000000     0.162630000000    -0.178582   
N13      N      0.367520000000     0.940700000000     0.724680000000    -0.174717   
N14      N      0.301530000000     0.003980000000     0.661500000000    -0.179051   
N15      N      0.618090000000     0.692600000000     0.666260000000    -0.174889   
N16      N      0.550630000000     0.754800000000     0.729530000000    -0.178773   
N17      N      0.553530000000     0.950270000000     0.910850000000    -0.175085   
N18      N      0.615520000000     0.016480000000     0.973800000000    -0.178512   
N19      N      0.125760000000     0.700290000000     0.172280000000    -0.174806   
N20      N      0.062780000000     0.764050000000     0.236760000000    -0.178539   
N21      N      0.368230000000     0.767210000000     0.919660000000    -0.174842   
N22      N      0.302990000000     0.706350000000     0.985310000000    -0.179069   
N23      N      0.307350000000     0.508350000000     0.165740000000    -0.175125   
N24      N      0.369040000000     0.441650000000     0.228380000000    -0.178693   
N25      N      0.129330000000     0.201660000000     0.668010000000    -0.174677   
N26      N      0.069860000000     0.266710000000     0.733260000000    -0.178322   
N27      N      0.812090000000     0.193740000000     0.973380000000    -0.174839   
N28      N      0.879870000000     0.256690000000     0.911050000000    -0.178953   
N29      N      0.814220000000     0.516800000000     0.667370000000    -0.174792   
N30      N      0.881810000000     0.455970000000     0.731680000000    -0.179201   
N31      N      0.120890000000     0.515070000000     0.985950000000    -0.174593   
N32      N      0.055080000000     0.452550000000     0.922060000000    -0.178591   
O1       O      0.883620000000     0.328730000000     0.862730000000    -0.492454   
O2       O      0.967970000000     0.287170000000     0.870850000000    -0.506995   
O3       O      0.968560000000     0.428570000000     0.775440000000    -0.507957   
O4       O      0.056070000000     0.399130000000     0.855970000000    -0.490045   
O5       O      0.978220000000     0.304500000000     0.760710000000    -0.507744   
O6       O      0.968240000000     0.411600000000     0.888930000000    -0.50617    
O7       O      0.885140000000     0.385570000000     0.782070000000    -0.494637   
O8       O      0.061640000000     0.322310000000     0.798000000000    -0.488905   
O9       O      0.216910000000     0.677470000000     0.028910000000    -0.507315   
O10      O      0.301580000000     0.636270000000     0.036190000000    -0.49271    
O11      O      0.128430000000     0.647030000000     0.106570000000    -0.487668   
O12      O      0.126840000000     0.568910000000     0.051130000000    -0.487917   
O13      O      0.303520000000     0.579940000000     0.117330000000    -0.490247   
O14      O      0.211450000000     0.553720000000     0.013570000000    -0.503267   
O15      O      0.214500000000     0.660570000000     0.142650000000    -0.503805   
O16      O      0.219870000000     0.536460000000     0.124740000000    -0.506773   
O17      O      0.548920000000     0.878640000000     0.862450000000    -0.491808   
O18      O      0.466450000000     0.923820000000     0.868510000000    -0.505129   
O19      O      0.374390000000     0.832590000000     0.864390000000    -0.491418   
O20      O      0.373610000000     0.875050000000     0.779690000000    -0.490848   
O21      O      0.547580000000     0.825690000000     0.779450000000    -0.494165   
O22      O      0.456960000000     0.917140000000     0.765850000000    -0.501817   
O23      O      0.456710000000     0.788560000000     0.876280000000    -0.501821   
O24      O      0.463800000000     0.783100000000     0.772630000000    -0.504435   
O25      O      0.801740000000     0.088260000000     0.112690000000    -0.494991   
O26      O      0.726690000000     0.035610000000     0.116030000000    -0.502252   
O27      O      0.703800000000     0.175030000000     0.116020000000    -0.5008     
O28      O      0.723540000000     0.173530000000     0.017080000000    -0.50038    
O29      O      0.705090000000     0.037090000000     0.016850000000    -0.501009   
O30      O      0.802350000000     0.124270000000     0.023830000000    -0.495121   
O31      O      0.628950000000     0.122160000000     0.113230000000    -0.494473   
O32      O      0.627060000000     0.086170000000     0.024940000000    -0.495428   
O33      O      0.472230000000     0.281280000000     0.275050000000    -0.501921   
O34      O      0.551840000000     0.330170000000     0.275360000000    -0.492931   
O35      O      0.379540000000     0.372950000000     0.280770000000    -0.493511   
O36      O      0.381400000000     0.334240000000     0.366500000000    -0.491926   
O37      O      0.557730000000     0.373230000000     0.362480000000    -0.494533   
O38      O      0.460750000000     0.285750000000     0.374590000000    -0.498934   
O39      O      0.459120000000     0.419730000000     0.270230000000    -0.502224   
O40      O      0.478540000000     0.420620000000     0.372450000000    -0.504801   
O41      O      0.707510000000     0.671350000000     0.624020000000    -0.501881   
O42      O      0.627380000000     0.624060000000     0.614600000000    -0.49177    
O43      O      0.801360000000     0.630430000000     0.530110000000    -0.49089    
O44      O      0.804690000000     0.584230000000     0.614480000000    -0.491838   
O45      O      0.630150000000     0.576820000000     0.530640000000    -0.491459   
O46      O      0.724610000000     0.537120000000     0.624990000000    -0.50258    
O47      O      0.715780000000     0.670830000000     0.520590000000    -0.503499   
O48      O      0.715100000000     0.535360000000     0.521850000000    -0.502196   
O49      O      0.951490000000     0.789220000000     0.372910000000    -0.506982   
O50      O      0.870540000000     0.834150000000     0.361490000000    -0.49266    
O51      O      0.046330000000     0.899360000000     0.353230000000    -0.488773   
O52      O      0.051380000000     0.819330000000     0.301440000000    -0.489022   
O53      O      0.877360000000     0.881470000000     0.276370000000    -0.491226   
O54      O      0.970370000000     0.803320000000     0.260690000000    -0.506143   
O55      O      0.959220000000     0.913160000000     0.386860000000    -0.503424   
O56      O      0.957700000000     0.929490000000     0.275660000000    -0.505539   
O57      O      0.123150000000     0.070790000000     0.545750000000    -0.488478   
O58      O      0.207250000000     0.052460000000     0.508810000000    -0.504446   
O59      O      0.217280000000     0.176790000000     0.525110000000    -0.507671   
O60      O      0.216210000000     0.160520000000     0.636880000000    -0.504251   
O61      O      0.300650000000     0.074140000000     0.610710000000    -0.493168   
O62      O      0.128330000000     0.146890000000     0.603370000000    -0.488006   
O63      O      0.300400000000     0.133320000000     0.531470000000    -0.492661   
O64      O      0.214150000000     0.036590000000     0.621860000000    -0.507632   
S1       S      0.943110000000     0.977110000000     0.463980000000     0.019437   
S2       S      0.754710000000     0.813790000000     0.400520000000     0.0230602  
S3       S      0.207320000000     0.266050000000     0.473600000000     0.0188576  
S4       S      0.673230000000     0.390610000000     0.403760000000     0.0216091  
S5       S      0.913130000000     0.077370000000     0.161570000000     0.0214738  
S6       S      0.517940000000     0.132770000000     0.162430000000     0.02245    
S7       S      0.199420000000     0.949810000000     0.676400000000     0.0186856  
S8       S      0.451750000000     0.695760000000     0.718560000000     0.0195899  
S9       S      0.513620000000     0.072870000000     0.979820000000     0.0225646  
S10      S      0.168550000000     0.779550000000     0.282840000000     0.0232748  
S11      S      0.202470000000     0.763190000000     0.972940000000     0.0187179  
S12      S      0.266030000000     0.386820000000     0.235840000000     0.0226478  
S13      S      0.178230000000     0.284000000000     0.775090000000     0.0242026  
S14      S      0.977020000000     0.195210000000     0.918470000000     0.0184784  
S15      S      0.980430000000     0.515100000000     0.720030000000     0.018201   
S16      S      0.950550000000     0.471240000000     0.968750000000     0.0188801  


