data_structure

_audit_creation_method RASPA-1.0
_audit_creation_date 2023-5-22
_audit_author_name 'Poobodin Mano'

_cell_length_a    26.2676
_cell_length_b    26.2242
_cell_length_c    23.141
_cell_angle_alpha 90
_cell_angle_beta  90
_cell_angle_gamma 90
_cell_volume      15940.6

_symmetry_cell_setting          triclinic
_symmetry_space_group_name_Hall 'P 1'
_symmetry_space_group_name_H-M  'P 1'
_symmetry_Int_Tables_number     1

_symmetry_equiv_pos_as_xyz 'x,y,z'

loop_
_atom_site_label
_atom_site_type_symbol
_atom_site_fract_x
_atom_site_fract_y
_atom_site_fract_z
_atom_site_charge
C1       C      0.910870000000     0.419160000000     0.971560000000     0.414213   
C2       C      0.782770000000     0.413090000000     0.846630000000     0.423738   
C3       C      0.909720000000     0.293490000000     0.844800000000     0.421413   
C4       C      0.786180000000     0.299610000000     0.972780000000     0.412967   
C5       C      0.035860000000     0.669090000000     0.225770000000     0.415187   
C6       C      0.159790000000     0.546900000000     0.229150000000     0.414325   
C7       C      0.033510000000     0.546690000000     0.101850000000     0.419538   
C8       C      0.160620000000     0.669740000000     0.106510000000     0.416518   
C9       C      0.292580000000     0.797380000000     0.989040000000     0.420132   
C10      C      0.426160000000     0.911480000000     0.986460000000     0.417388   
C11      C      0.415630000000     0.799300000000     0.858280000000     0.414814   
C12      C      0.292900000000     0.920610000000     0.867320000000     0.41177    
C13      C      0.663560000000     0.171930000000     0.102870000000     0.413073   
C14      C      0.555950000000     0.035170000000     0.111070000000     0.413265   
C15      C      0.669580000000     0.048450000000     0.232340000000     0.417874   
C16      C      0.542320000000     0.174530000000     0.222630000000     0.420887   
C17      C      0.288800000000     0.421470000000     0.353850000000     0.413506   
C18      C      0.404000000000     0.425060000000     0.477230000000     0.414864   
C19      C      0.294390000000     0.290200000000     0.475730000000     0.416353   
C20      C      0.412200000000     0.297110000000     0.349360000000     0.415795   
C21      C      0.527740000000     0.551930000000     0.606260000000     0.417361   
C22      C      0.656840000000     0.541710000000     0.722590000000     0.414193   
C23      C      0.659330000000     0.673130000000     0.606580000000     0.415176   
C24      C      0.538940000000     0.674470000000     0.725950000000     0.417828   
C25      C      0.922700000000     0.914820000000     0.481340000000     0.415905   
C26      C      0.797440000000     0.924480000000     0.360340000000     0.415037   
C27      C      0.912370000000     0.793650000000     0.358400000000     0.410445   
C28      C      0.788320000000     0.798770000000     0.482200000000     0.415274   
C29      C      0.042950000000     0.166370000000     0.728540000000     0.420217   
C30      C      0.172220000000     0.048850000000     0.736100000000     0.424723   
C31      C      0.053390000000     0.037750000000     0.606190000000     0.412691   
C32      C      0.171310000000     0.160900000000     0.603190000000     0.408493   
C33      C      0.973950000000     0.988980000000     0.489560000000     0.0405649  
C34      C      0.974940000000     0.927460000000     0.563770000000     0.0622295  
C35      C      0.007900000000     0.019050000000     0.520900000000     0.0323495  
C36      C      0.010020000000     0.956930000000     0.595230000000    -0.00383415 
C37      C      0.032880000000     0.933140000000     0.647460000000     0.310011   
C38      C      0.740790000000     0.722370000000     0.491890000000     0.0401778  
C39      C      0.736950000000     0.784660000000     0.565120000000     0.0626814  
C40      C      0.707780000000     0.691430000000     0.523370000000     0.033375   
C41      C      0.702700000000     0.754290000000     0.596700000000    -0.0054452  
C42      C      0.679270000000     0.777740000000     0.648730000000     0.31056    
C43      C      0.185450000000     0.214100000000     0.521810000000     0.0413454  
C44      C      0.251400000000     0.200870000000     0.589140000000     0.0624687  
C45      C      0.216660000000     0.247210000000     0.490760000000     0.0332625  
C46      C      0.282810000000     0.235100000000     0.559000000000    -0.00443197 
C47      C      0.332310000000     0.247650000000     0.586390000000     0.307907   
C48      C      0.463880000000     0.492520000000     0.483810000000     0.0411349  
C49      C      0.429650000000     0.456860000000     0.568800000000     0.0625266  
C50      C      0.494060000000     0.525010000000     0.516920000000     0.0327145  
C51      C      0.459310000000     0.490000000000     0.602670000000    -0.00467204 
C52      C      0.449120000000     0.490240000000     0.665800000000     0.309547   
C53      C      0.690590000000     0.005910000000     0.319770000000     0.0407751  
C54      C      0.746760000000     0.002110000000     0.240530000000     0.0626785  
C55      C      0.723680000000     0.975420000000     0.351890000000     0.0319375  
C56      C      0.781110000000     0.972710000000     0.273000000000    -0.00456906 
C57      C      0.831640000000     0.962700000000     0.246520000000     0.311815   
C58      C      0.493740000000     0.261370000000     0.332510000000     0.0409207  
C59      C      0.426830000000     0.244410000000     0.267500000000     0.0622979  
C60      C      0.526340000000     0.231250000000     0.299550000000     0.0325018  
C61      C      0.459740000000     0.215020000000     0.232990000000    -0.0054789  
C62      C      0.439490000000     0.197060000000     0.176660000000     0.311083   
C63      C      0.245090000000     0.938280000000     0.782910000000     0.0415868  
C64      C      0.251650000000     0.000650000000     0.855840000000     0.0625095  
C65      C      0.216100000000     0.971550000000     0.749600000000     0.0344628  
C66      C      0.222650000000     0.034800000000     0.822390000000    -0.00293985 
C67      C      0.217980000000     0.087900000000     0.844080000000     0.309193   
C68      C      0.517330000000     0.712800000000     0.815370000000     0.0424692  
C69      C      0.468440000000     0.730820000000     0.732470000000     0.0638816  
C70      C      0.485240000000     0.743390000000     0.848410000000     0.0341962  
C71      C      0.435480000000     0.761430000000     0.765440000000    -0.00508549 
C72      C      0.389300000000     0.781050000000     0.735850000000     0.312206   
C73      C      0.489770000000     0.975600000000     0.990480000000     0.0416671  
C74      C      0.466940000000     0.931350000000     0.075240000000     0.0631723  
C75      C      0.523430000000     0.005610000000     0.022230000000     0.034912   
C76      C      0.501450000000     0.960800000000     0.107580000000    -0.00383948 
C77      C      0.510630000000     0.945280000000     0.168480000000     0.311235   
C78      C      0.984890000000     0.740460000000     0.348030000000     0.0400288  
C79      C      0.931070000000     0.754920000000     0.268230000000     0.0625636  
C80      C      0.016130000000     0.709910000000     0.313800000000     0.0353357  
C81      C      0.963120000000     0.725510000000     0.232860000000    -0.0036894  
C82      C      0.952360000000     0.726220000000     0.169890000000     0.311864   
C83      C      0.216560000000     0.686360000000     0.028280000000     0.0424678  
C84      C      0.203790000000     0.749020000000     0.099800000000     0.0626399  
C85      C      0.250530000000     0.718550000000     0.999870000000     0.0327178  
C86      C      0.238660000000     0.781510000000     0.072100000000    -0.00453807 
C87      C      0.252800000000     0.829080000000     0.103010000000     0.310156   
C88      C      0.264530000000     0.461710000000     0.266210000000     0.040739   
C89      C      0.218000000000     0.477710000000     0.351340000000     0.0622603  
C90      C      0.232260000000     0.494120000000     0.235610000000     0.0324108  
C91      C      0.185610000000     0.511060000000     0.321130000000    -0.00575013 
C92      C      0.148480000000     0.540690000000     0.356020000000     0.310504   
C93      C      0.017560000000     0.248840000000     0.759490000000     0.0404155  
C94      C      0.966210000000     0.177670000000     0.781070000000     0.0621214  
C95      C      0.982940000000     0.280610000000     0.787590000000     0.0324043  
C96      C      0.930540000000     0.209400000000     0.808490000000    -0.00500138 
C97      C      0.881960000000     0.185240000000     0.826670000000     0.309092   
C98      C      0.762440000000     0.262930000000     0.062590000000     0.0410726  
C99      C      0.716320000000     0.242470000000     0.978410000000     0.0627464  
C100     C      0.731900000000     0.229810000000     0.094500000000     0.0334276  
C101     C      0.685760000000     0.208370000000     0.009920000000    -0.00484703 
C102     C      0.649570000000     0.176660000000     0.976200000000     0.311348   
C103     C      0.728730000000     0.486830000000     0.727880000000     0.0405402  
C104     C      0.674270000000     0.495280000000     0.808240000000     0.0627105  
C105     C      0.759490000000     0.453420000000     0.759290000000     0.0348848  
C106     C      0.704380000000     0.460960000000     0.839920000000    -0.00241342 
C107     C      0.684060000000     0.443480000000     0.896530000000     0.309732   
C108     C      0.966590000000     0.433330000000     0.050880000000     0.040547   
C109     C      0.944150000000     0.501690000000     0.989950000000     0.0614831  
C110     C      0.996340000000     0.466210000000     0.084170000000     0.032539   
C111     C      0.973400000000     0.535330000000     0.023600000000    -0.00337419 
C112     C      0.969000000000     0.590490000000     0.009960000000     0.309797   
H1       H      0.019030000000     0.055330000000     0.502260000000     0.0504672  
H2       H      0.961020000000     0.002920000000     0.447940000000     0.0483297  
H3       H      0.963470000000     0.890670000000     0.580950000000     0.0542871  
H4       H      0.099620000000     0.918400000000     0.688660000000     0.18957    
H5       H      0.698100000000     0.654620000000     0.505020000000     0.0509235  
H6       H      0.754560000000     0.708390000000     0.450640000000     0.0474997  
H7       H      0.747070000000     0.821970000000     0.581960000000     0.0535218  
H8       H      0.611980000000     0.793970000000     0.688010000000     0.192396   
H9       H      0.201010000000     0.263970000000     0.451760000000     0.0511109  
H10      H      0.147190000000     0.207340000000     0.505940000000     0.0489358  
H11      H      0.265750000000     0.183740000000     0.628660000000     0.0544169  
H12      H      0.396440000000     0.216770000000     0.620700000000     0.195888   
H13      H      0.519370000000     0.550700000000     0.494010000000     0.051124   
H14      H      0.466700000000     0.495040000000     0.437130000000     0.0471326  
H15      H      0.403530000000     0.430970000000     0.590320000000     0.0587985  
H16      H      0.437090000000     0.444730000000     0.735510000000     0.19628    
H17      H      0.712210000000     0.965400000000     0.395460000000     0.0500158  
H18      H      0.655560000000     0.018530000000     0.340050000000     0.0475143  
H19      H      0.757370000000     0.013180000000     0.196930000000     0.0538153  
H20      H      0.907970000000     0.968520000000     0.259160000000     0.192637   
H21      H      0.565130000000     0.226880000000     0.314840000000     0.0498745  
H22      H      0.508930000000     0.279270000000     0.371090000000     0.0477355  
H23      H      0.387850000000     0.250040000000     0.253240000000     0.0522475  
H24      H      0.452550000000     0.195950000000     0.090120000000     0.194142   
H25      H      0.202480000000     0.957660000000     0.708230000000     0.0513188  
H26      H      0.253300000000     0.900800000000     0.765380000000     0.0491041  
H27      H      0.266470000000     0.013460000000     0.897180000000     0.0541272  
H28      H      0.226410000000     0.162500000000     0.822340000000     0.191517   
H29      H      0.494090000000     0.747430000000     0.893970000000     0.0511683  
H30      H      0.548860000000     0.694070000000     0.836950000000     0.0521203  
H31      H      0.460330000000     0.725460000000     0.686850000000     0.0536598  
H32      H      0.312080000000     0.784320000000     0.739690000000     0.193466   
H33      H      0.544190000000     0.034990000000     0.999110000000     0.0506772  
H34      H      0.486640000000     0.982550000000     0.944420000000     0.0483908  
H35      H      0.445930000000     0.901250000000     0.096910000000     0.0539962  
H36      H      0.565610000000     0.931240000000     0.228210000000     0.191653   
H37      H      0.048880000000     0.692420000000     0.334380000000     0.0496257  
H38      H      0.995190000000     0.745770000000     0.393020000000     0.0478347  
H39      H      0.898300000000     0.773450000000     0.248770000000     0.0568915  
H40      H      0.983000000000     0.741490000000     0.091120000000     0.188902   
H41      H      0.267410000000     0.704700000000     0.960060000000     0.0517151  
H42      H      0.209310000000     0.649080000000     0.009740000000     0.0492643  
H43      H      0.186640000000     0.761500000000     0.140100000000     0.0539297  
H44      H      0.312400000000     0.870760000000     0.133100000000     0.197465   
H45      H      0.239350000000     0.498690000000     0.189720000000     0.049612   
H46      H      0.295300000000     0.443330000000     0.242920000000     0.0481958  
H47      H      0.212270000000     0.472740000000     0.397470000000     0.052502   
H48      H      0.122590000000     0.612060000000     0.373520000000     0.192584   
H49      H      0.991890000000     0.320950000000     0.789610000000     0.0487973  
H50      H      0.051100000000     0.266040000000     0.740320000000     0.0467114  
H51      H      0.958100000000     0.137160000000     0.777800000000     0.0544821  
H52      H      0.851700000000     0.123810000000     0.867630000000     0.197056   
H53      H      0.739460000000     0.226770000000     0.140450000000     0.0501421  
H54      H      0.792490000000     0.283290000000     0.084980000000     0.0486138  
H55      H      0.710060000000     0.245990000000     0.932190000000     0.056845   
H56      H      0.628180000000     0.103860000000     0.958430000000     0.194184   
H57      H      0.793240000000     0.438590000000     0.738130000000     0.0502124  
H58      H      0.739490000000     0.495710000000     0.683770000000     0.0465983  
H59      H      0.639920000000     0.510240000000     0.828110000000     0.0560229  
H60      H      0.669670000000     0.380920000000     0.945780000000     0.191768   
H61      H      0.016730000000     0.449960000000     0.120540000000     0.0490766  
H62      H      0.964650000000     0.393530000000     0.063440000000     0.0478368  
H63      H      0.922790000000     0.516980000000     0.953680000000     0.0536048  
H64      H      0.953450000000     0.660130000000     0.043980000000     0.19498    
In1      In     0.849990000000     0.356980000000     0.908390000000     2.42505    
In2      In     0.097470000000     0.606260000000     0.164620000000     2.42591    
In3      In     0.355930000000     0.857830000000     0.926440000000     2.43054    
In4      In     0.606960000000     0.108590000000     0.169330000000     2.43238    
In5      In     0.350270000000     0.357530000000     0.413200000000     2.42511    
In6      In     0.597070000000     0.608830000000     0.664790000000     2.42731    
In7      In     0.854470000000     0.857660000000     0.422060000000     2.4181     
In8      In     0.108290000000     0.104740000000     0.669940000000     2.42106    
N1       N      0.956930000000     0.943750000000     0.511520000000    -0.179927   
N2       N      0.024690000000     0.004120000000     0.574390000000    -0.160563   
N3       N      0.755590000000     0.768650000000     0.513030000000    -0.180237   
N4       N      0.689400000000     0.706580000000     0.576120000000    -0.160992   
N5       N      0.202760000000     0.191350000000     0.571080000000    -0.177961   
N6       N      0.265280000000     0.257820000000     0.508810000000    -0.161942   
N7       N      0.432400000000     0.458030000000     0.509800000000    -0.179191   
N8       N      0.493240000000     0.522840000000     0.576130000000    -0.162077   
N9       N      0.701970000000     0.018650000000     0.264040000000    -0.1799     
N10      N      0.768330000000     0.957810000000     0.328490000000    -0.160762   
N11      N      0.444010000000     0.267440000000     0.316770000000    -0.180329   
N12      N      0.509490000000     0.207110000000     0.250570000000    -0.1625     
N13      N      0.262860000000     0.952900000000     0.835810000000    -0.178642   
N14      N      0.203950000000     0.019320000000     0.769360000000    -0.1613     
N15      N      0.508650000000     0.706330000000     0.757660000000    -0.178911   
N16      N      0.444730000000     0.768190000000     0.823810000000    -0.160369   
N17      N      0.460810000000     0.939400000000     0.017260000000    -0.179338   
N18      N      0.527870000000     0.999860000000     0.080920000000    -0.159374   
N19      N      0.942400000000     0.762680000000     0.325220000000    -0.178234   
N20      N      0.005170000000     0.701680000000     0.256600000000    -0.160181   
N21      N      0.193230000000     0.701710000000     0.078020000000    -0.179682   
N22      N      0.261090000000     0.766330000000     0.020850000000    -0.162025   
N23      N      0.257150000000     0.453370000000     0.323850000000    -0.179262   
N24      N      0.192220000000     0.518010000000     0.262350000000    -0.160951   
N25      N      0.009270000000     0.197480000000     0.756680000000    -0.181565   
N26      N      0.940130000000     0.261120000000     0.813330000000    -0.163413   
N27      N      0.754780000000     0.268900000000     0.004640000000    -0.177686   
N28      N      0.693360000000     0.202780000000     0.068740000000    -0.160415   
N29      N      0.686680000000     0.508200000000     0.752740000000    -0.179321   
N30      N      0.748480000000     0.441720000000     0.815680000000    -0.161344   
N31      N      0.940760000000     0.451120000000     0.003800000000    -0.17955    
N32      N      0.000790000000     0.516830000000     0.070140000000    -0.161675   
O1       O      0.822650000000     0.324490000000     0.994740000000    -0.483491   
O2       O      0.781920000000     0.304190000000     0.918640000000    -0.479957   
O3       O      0.782370000000     0.410550000000     0.901070000000    -0.486085   
O4       O      0.884890000000     0.434500000000     0.929130000000    -0.49908    
O5       O      0.875820000000     0.278170000000     0.879000000000    -0.489577   
O6       O      0.906440000000     0.372130000000     0.982150000000    -0.488727   
O7       O      0.818700000000     0.388560000000     0.823130000000    -0.489844   
O8       O      0.914640000000     0.341370000000     0.843790000000    -0.496319   
O9       O      0.139340000000     0.681780000000     0.153410000000    -0.496449   
O10      O      0.149940000000     0.625500000000     0.088630000000    -0.486694   
O11      O      0.116950000000     0.562270000000     0.246620000000    -0.476116   
O12      O      0.077460000000     0.652160000000     0.245370000000    -0.477478   
O13      O      0.048410000000     0.590060000000     0.085510000000    -0.480262   
O14      O      0.024800000000     0.652670000000     0.176110000000    -0.479532   
O15      O      0.170000000000     0.559580000000     0.177740000000    -0.498237   
O16      O      0.052460000000     0.532470000000     0.149400000000    -0.49847    
O17      O      0.313380000000     0.933320000000     0.914530000000    -0.491015   
O18      O      0.303620000000     0.876070000000     0.850660000000    -0.48654    
O19      O      0.398400000000     0.877770000000     0.009380000000    -0.491385   
O20      O      0.297650000000     0.844440000000     0.998310000000    -0.483846   
O21      O      0.384130000000     0.831170000000     0.838570000000    -0.474114   
O22      O      0.318210000000     0.781320000000     0.946740000000    -0.496883   
O23      O      0.418680000000     0.917920000000     0.933010000000    -0.497853   
O24      O      0.418530000000     0.798710000000     0.912840000000    -0.492733   
O25      O      0.528940000000     0.145370000000     0.182200000000    -0.488908   
O26      O      0.588410000000     0.169570000000     0.237000000000    -0.499509   
O27      O      0.584210000000     0.067530000000     0.086390000000    -0.477613   
O28      O      0.622540000000     0.151960000000     0.085840000000    -0.473089   
O29      O      0.629110000000     0.067190000000     0.252830000000    -0.492024   
O30      O      0.674850000000     0.161420000000     0.154600000000    -0.492386   
O31      O      0.553100000000     0.040560000000     0.165190000000    -0.480761   
O32      O      0.678070000000     0.059900000000     0.180240000000    -0.497182   
O33      O      0.365730000000     0.303480000000     0.337380000000    -0.492892   
O34      O      0.427100000000     0.320870000000     0.393620000000    -0.499465   
O35      O      0.406290000000     0.423710000000     0.422730000000    -0.496827   
O36      O      0.284050000000     0.413460000000     0.407430000000    -0.493322   
O37      O      0.341110000000     0.297990000000     0.484380000000    -0.480403   
O38      O      0.324980000000     0.397450000000     0.330240000000    -0.491002   
O39      O      0.374090000000     0.392770000000     0.499250000000    -0.483417   
O40      O      0.276440000000     0.314970000000     0.433620000000    -0.492884   
O41      O      0.530710000000     0.664670000000     0.673310000000    -0.49202    
O42      O      0.576760000000     0.651510000000     0.747330000000    -0.481203   
O43      O      0.666070000000     0.555060000000     0.671210000000    -0.498605   
O44      O      0.537580000000     0.545370000000     0.659050000000    -0.487825   
O45      O      0.647070000000     0.679680000000     0.658750000000    -0.487915   
O46      O      0.554170000000     0.586330000000     0.582680000000    -0.487312   
O47      O      0.617750000000     0.562070000000     0.744180000000    -0.486624   
O48      O      0.642120000000     0.632450000000     0.584770000000    -0.486461   
O49      O      0.803610000000     0.841570000000     0.500120000000    -0.489266   
O50      O      0.805970000000     0.785950000000     0.433610000000    -0.501509   
O51      O      0.834900000000     0.900590000000     0.339740000000    -0.473181   
O52      O      0.905380000000     0.927860000000     0.432670000000    -0.497011   
O53      O      0.922880000000     0.804680000000     0.410210000000    -0.49407    
O54      O      0.905660000000     0.872930000000     0.499970000000    -0.488885   
O55      O      0.787850000000     0.913600000000     0.412450000000    -0.493749   
O56      O      0.872410000000     0.814410000000     0.339260000000    -0.478556   
O57      O      0.125380000000     0.152610000000     0.589710000000    -0.479349   
O58      O      0.185380000000     0.140250000000     0.649850000000    -0.490343   
O59      O      0.148900000000     0.087520000000     0.755110000000    -0.483156   
O60      O      0.036380000000     0.119000000000     0.723570000000    -0.497097   
O61      O      0.072030000000     0.078110000000     0.585080000000    -0.483237   
O62      O      0.082790000000     0.182700000000     0.704550000000    -0.501572   
O63      O      0.162430000000     0.038300000000     0.683990000000    -0.491268   
O64      O      0.061410000000     0.032450000000     0.659550000000    -0.478575   
O65      O      0.083850000000     0.934000000000     0.655250000000    -0.314669   
O66      O      0.005790000000     0.910940000000     0.682260000000    -0.223415   
O67      O      0.628110000000     0.778500000000     0.654740000000    -0.317721   
O68      O      0.706170000000     0.798390000000     0.684930000000    -0.223771   
O69      O      0.364330000000     0.209740000000     0.601810000000    -0.326792   
O70      O      0.343000000000     0.291900000000     0.597750000000    -0.209125   
O71      O      0.444550000000     0.445660000000     0.694570000000    -0.326272   
O72      O      0.442450000000     0.530520000000     0.691300000000    -0.217481   
O73      O      0.874640000000     0.974160000000     0.275800000000    -0.315011   
O74      O      0.834370000000     0.946140000000     0.197240000000    -0.221896   
O75      O      0.465320000000     0.206750000000     0.127390000000    -0.318213   
O76      O      0.398290000000     0.175470000000     0.174530000000    -0.223465   
O77      O      0.228610000000     0.127610000000     0.808910000000    -0.314372   
O78      O      0.206660000000     0.095680000000     0.894560000000    -0.223771   
O79      O      0.342710000000     0.772330000000     0.758540000000    -0.314353   
O80      O      0.393250000000     0.803170000000     0.689570000000    -0.225003   
O81      O      0.558700000000     0.941710000000     0.188880000000    -0.318672   
O82      O      0.474810000000     0.933720000000     0.199560000000    -0.224637   
O83      O      0.989360000000     0.739510000000     0.132240000000    -0.315256   
O84      O      0.909430000000     0.717150000000     0.152280000000    -0.222519   
O85      O      0.302310000000     0.840280000000     0.112490000000    -0.313374   
O86      O      0.219590000000     0.857010000000     0.122160000000    -0.222498   
O87      O      0.146130000000     0.591950000000     0.350820000000    -0.31505    
O88      O      0.121530000000     0.518930000000     0.391330000000    -0.226728   
O89      O      0.882800000000     0.140770000000     0.856080000000    -0.326706   
O90      O      0.841230000000     0.204170000000     0.812760000000    -0.214749   
O91      O      0.651060000000     0.125300000000     0.980440000000    -0.311091   
O92      O      0.619920000000     0.196930000000     0.942600000000    -0.224349   
O93      O      0.683100000000     0.393230000000     0.909410000000    -0.313989   
O94      O      0.666280000000     0.474370000000     0.930570000000    -0.224561   
O95      O      0.957550000000     0.624180000000     0.052140000000    -0.30765    
O96      O      0.973460000000     0.605160000000     0.960080000000    -0.224812   


