data_structure

_audit_creation_method RASPA-1.0
_audit_creation_date 2023-5-23
_audit_author_name 'Poobodin Mano'

_cell_length_a    33.5856
_cell_length_b    33.5929
_cell_length_c    33.2223
_cell_angle_alpha 90.0077
_cell_angle_beta  90.4417
_cell_angle_gamma 120.087
_cell_volume      32431.1

_symmetry_cell_setting          triclinic
_symmetry_space_group_name_Hall 'P 1'
_symmetry_space_group_name_H-M  'P 1'
_symmetry_Int_Tables_number     1

_symmetry_equiv_pos_as_xyz 'x,y,z'

loop_
_atom_site_label
_atom_site_type_symbol
_atom_site_fract_x
_atom_site_fract_y
_atom_site_fract_z
_atom_site_charge
C1       C      0.507670000000     0.321950000000     0.160550000000     0.409095   
C2       C      0.505230000000     0.442790000000     0.221750000000     0.408365   
C3       C      0.626000000000     0.440230000000     0.159340000000     0.40891    
C4       C      0.505090000000     0.442900000000     0.098090000000     0.408087   
C5       C      0.322800000000     0.507070000000     0.409680000000     0.408987   
C6       C      0.443640000000     0.504470000000     0.347540000000     0.408206   
C7       C      0.441110000000     0.625360000000     0.408490000000     0.409041   
C8       C      0.443650000000     0.504490000000     0.471200000000     0.408026   
C9       C      0.789020000000     0.322240000000     0.158140000000     0.409115   
C10      C      0.912570000000     0.442900000000     0.096670000000     0.408373   
C11      C      0.789260000000     0.440470000000     0.158360000000     0.40884    
C12      C      0.912900000000     0.443040000000     0.220320000000     0.407971   
C13      C      0.159500000000     0.506780000000     0.410150000000     0.408961   
C14      C      0.036100000000     0.504310000000     0.471450000000     0.408446   
C15      C      0.159700000000     0.624990000000     0.409890000000     0.409036   
C16      C      0.035920000000     0.504190000000     0.347810000000     0.407858   
C17      C      0.625660000000     0.158950000000     0.158890000000     0.408972   
C18      C      0.504990000000     0.035300000000     0.221210000000     0.4083     
C19      C      0.507420000000     0.158710000000     0.160320000000     0.409043   
C20      C      0.504910000000     0.035230000000     0.097560000000     0.407945   
C21      C      0.441300000000     0.788580000000     0.408230000000     0.408998   
C22      C      0.443700000000     0.911910000000     0.346980000000     0.408447   
C23      C      0.323040000000     0.788310000000     0.409170000000     0.408964   
C24      C      0.443790000000     0.912110000000     0.470620000000     0.408127   
C25      C      0.446650000000     0.988610000000     0.267620000000     0.0329573  
C26      C      0.517540000000     0.989810000000     0.268730000000     0.0328723  
C27      C      0.502020000000     0.958580000000     0.300550000000     0.0330876  
C28      C      0.431140000000     0.957380000000     0.299430000000     0.0329521  
C29      C      0.447000000000     0.989360000000     0.049620000000     0.032971   
C30      C      0.517170000000     0.989130000000     0.050680000000     0.0329422  
C31      C      0.501710000000     0.958000000000     0.518550000000     0.0330661  
C32      C      0.431540000000     0.958220000000     0.517480000000     0.0331221  
C33      C      0.216450000000     0.690800000000     0.445220000000     0.0327791  
C34      C      0.215070000000     0.690470000000     0.374180000000     0.0327381  
C35      C      0.256690000000     0.732100000000     0.373990000000     0.0327629  
C36      C      0.258080000000     0.732420000000     0.445030000000     0.0327268  
C37      C      0.732100000000     0.256590000000     0.122770000000     0.0327684  
C38      C      0.733810000000     0.256620000000     0.193800000000     0.0327473  
C39      C      0.692180000000     0.215000000000     0.193990000000     0.0327424  
C40      C      0.690460000000     0.214980000000     0.122960000000     0.0327255  
C41      C      0.958670000000     0.430660000000     0.267910000000     0.0333625  
C42      C      0.959070000000     0.501130000000     0.267910000000     0.0333501  
C43      C      0.990170000000     0.516590000000     0.300200000000     0.0322265  
C44      C      0.989770000000     0.446110000000     0.300200000000     0.0322282  
C45      C      0.990180000000     0.516620000000     0.518250000000     0.032141   
C46      C      0.989740000000     0.446130000000     0.518190000000     0.0322285  
C47      C      0.958460000000     0.430580000000     0.049860000000     0.0331571  
C48      C      0.958900000000     0.501070000000     0.049910000000     0.0332565  
C49      C      0.449490000000     0.690270000000     0.372690000000     0.0326467  
C50      C      0.452120000000     0.691700000000     0.443710000000     0.0327149  
C51      C      0.452170000000     0.733310000000     0.443640000000     0.0327838  
C52      C      0.449550000000     0.731870000000     0.372630000000     0.032735   
C53      C      0.216290000000     0.498050000000     0.445610000000     0.032741   
C54      C      0.214760000000     0.496480000000     0.374580000000     0.0327652  
C55      C      0.256380000000     0.496560000000     0.374460000000     0.032695   
C56      C      0.257920000000     0.498140000000     0.445490000000     0.0327357  
C57      C      0.690830000000     0.449280000000     0.123370000000     0.0327285  
C58      C      0.692440000000     0.450580000000     0.194400000000     0.032704   
C59      C      0.734050000000     0.450640000000     0.194140000000     0.0327434  
C60      C      0.732450000000     0.449370000000     0.123110000000     0.0327096  
C61      C      0.496480000000     0.255630000000     0.125180000000     0.0327214  
C62      C      0.499440000000     0.257020000000     0.196190000000     0.032792   
C63      C      0.499370000000     0.215410000000     0.196140000000     0.0326634  
C64      C      0.496400000000     0.214010000000     0.125120000000     0.0327134  
C65      C      0.447110000000     0.430570000000     0.050170000000     0.0330564  
C66      C      0.517140000000     0.501270000000     0.051280000000     0.0330538  
C67      C      0.501610000000     0.516850000000     0.519160000000     0.0329733  
C68      C      0.431570000000     0.446150000000     0.518050000000     0.0330381  
C69      C      0.446860000000     0.430830000000     0.268200000000     0.0329924  
C70      C      0.517620000000     0.500800000000     0.269310000000     0.0329363  
C71      C      0.502030000000     0.516410000000     0.301130000000     0.0330252  
C72      C      0.431270000000     0.446440000000     0.300020000000     0.0329663  
C73      C      0.507670000000     0.321950000000     0.660550000000     0.409089   
C74      C      0.505230000000     0.442790000000     0.721750000000     0.408463   
C75      C      0.626000000000     0.440230000000     0.659340000000     0.408964   
C76      C      0.505080000000     0.442900000000     0.598090000000     0.408058   
C77      C      0.322800000000     0.507070000000     0.909680000000     0.408985   
C78      C      0.443640000000     0.504470000000     0.847540000000     0.408205   
C79      C      0.441110000000     0.625360000000     0.908490000000     0.409041   
C80      C      0.443650000000     0.504490000000     0.971200000000     0.408002   
C81      C      0.789020000000     0.322240000000     0.658140000000     0.409111   
C82      C      0.912570000000     0.442900000000     0.596670000000     0.408316   
C83      C      0.789260000000     0.440460000000     0.658350000000     0.408865   
C84      C      0.912900000000     0.443040000000     0.720320000000     0.407695   
C85      C      0.159500000000     0.506780000000     0.910150000000     0.409024   
C86      C      0.036100000000     0.504310000000     0.971460000000     0.408668   
C87      C      0.159700000000     0.624990000000     0.909890000000     0.40898    
C88      C      0.035920000000     0.504200000000     0.847810000000     0.4077     
C89      C      0.625660000000     0.158950000000     0.658880000000     0.409048   
C90      C      0.504990000000     0.035300000000     0.721210000000     0.408582   
C91      C      0.507420000000     0.158710000000     0.660320000000     0.409315   
C92      C      0.504910000000     0.035230000000     0.597560000000     0.407948   
C93      C      0.441300000000     0.788580000000     0.908230000000     0.409008   
C94      C      0.443700000000     0.911910000000     0.846980000000     0.408174   
C95      C      0.323040000000     0.788310000000     0.909170000000     0.409221   
C96      C      0.443790000000     0.912110000000     0.970620000000     0.408103   
C97      C      0.446660000000     0.988610000000     0.767610000000     0.0330534  
C98      C      0.517540000000     0.989810000000     0.768730000000     0.0329193  
C99      C      0.502020000000     0.958580000000     0.800550000000     0.0329984  
C100     C      0.431140000000     0.957380000000     0.799430000000     0.0329545  
C101     C      0.447000000000     0.989360000000     0.549620000000     0.0329683  
C102     C      0.517170000000     0.989130000000     0.550680000000     0.0329411  
C103     C      0.501710000000     0.958000000000     0.018550000000     0.03307    
C104     C      0.431540000000     0.958220000000     0.017480000000     0.0331227  
C105     C      0.216450000000     0.690800000000     0.945220000000     0.0327066  
C106     C      0.215070000000     0.690470000000     0.874180000000     0.0327885  
C107     C      0.256690000000     0.732100000000     0.873990000000     0.0327525  
C108     C      0.258090000000     0.732420000000     0.945030000000     0.0327735  
C109     C      0.732100000000     0.256590000000     0.622770000000     0.0327681  
C110     C      0.733810000000     0.256620000000     0.693800000000     0.0327387  
C111     C      0.692170000000     0.215000000000     0.693990000000     0.0327659  
C112     C      0.690460000000     0.214980000000     0.622960000000     0.0327203  
C113     C      0.958670000000     0.430660000000     0.767910000000     0.0333144  
C114     C      0.959070000000     0.501130000000     0.767910000000     0.0333083  
C115     C      0.990170000000     0.516590000000     0.800200000000     0.0322841  
C116     C      0.989770000000     0.446120000000     0.800200000000     0.0322658  
C117     C      0.990180000000     0.516620000000     0.018250000000     0.0321511  
C118     C      0.989740000000     0.446130000000     0.018190000000     0.0322673  
C119     C      0.958460000000     0.430580000000     0.549860000000     0.0331996  
C120     C      0.958900000000     0.501070000000     0.549910000000     0.0332362  
C121     C      0.449490000000     0.690270000000     0.872690000000     0.0326197  
C122     C      0.452120000000     0.691700000000     0.943710000000     0.0327364  
C123     C      0.452170000000     0.733310000000     0.943640000000     0.0327226  
C124     C      0.449550000000     0.731870000000     0.872630000000     0.0327951  
C125     C      0.216290000000     0.498050000000     0.945610000000     0.0327383  
C126     C      0.214760000000     0.496480000000     0.874580000000     0.0327634  
C127     C      0.256380000000     0.496560000000     0.874460000000     0.0326954  
C128     C      0.257920000000     0.498140000000     0.945490000000     0.0327335  
C129     C      0.690830000000     0.449290000000     0.623360000000     0.0326721  
C130     C      0.692440000000     0.450580000000     0.694400000000     0.0327473  
C131     C      0.734050000000     0.450640000000     0.694150000000     0.0326645  
C132     C      0.732450000000     0.449370000000     0.623110000000     0.0327281  
C133     C      0.496480000000     0.255630000000     0.625180000000     0.0327093  
C134     C      0.499440000000     0.257020000000     0.696200000000     0.0326999  
C135     C      0.499370000000     0.215410000000     0.696140000000     0.0327206  
C136     C      0.496400000000     0.214010000000     0.625120000000     0.0327345  
C137     C      0.447100000000     0.430570000000     0.550170000000     0.0329978  
C138     C      0.517140000000     0.501270000000     0.551280000000     0.0330658  
C139     C      0.501610000000     0.516850000000     0.019160000000     0.0329872  
C140     C      0.431570000000     0.446150000000     0.018050000000     0.0330147  
C141     C      0.446860000000     0.430830000000     0.768200000000     0.0329953  
C142     C      0.517620000000     0.500800000000     0.769310000000     0.032938   
C143     C      0.502030000000     0.516410000000     0.801130000000     0.0330216  
C144     C      0.431270000000     0.446440000000     0.800020000000     0.0329626  
H1       H      0.423630000000     0.999570000000     0.255500000000     0.045172   
H2       H      0.551930000000     0.001750000000     0.257520000000     0.0453507  
H3       H      0.525040000000     0.947620000000     0.312670000000     0.0451269  
H4       H      0.396750000000     0.945440000000     0.310650000000     0.0453238  
H5       H      0.424250000000     0.000870000000     0.060960000000     0.0453706  
H6       H      0.551260000000     0.000460000000     0.062890000000     0.0453216  
H7       H      0.524460000000     0.946490000000     0.507200000000     0.0453169  
H8       H      0.397450000000     0.946900000000     0.505270000000     0.0452698  
H9       H      0.201980000000     0.675440000000     0.474050000000     0.0449791  
H10      H      0.199470000000     0.674830000000     0.345470000000     0.0450612  
H11      H      0.271630000000     0.746990000000     0.345150000000     0.0450361  
H12      H      0.274150000000     0.747580000000     0.473730000000     0.0449929  
H13      H      0.746440000000     0.272070000000     0.093930000000     0.0449341  
H14      H      0.749540000000     0.272130000000     0.222500000000     0.0450254  
H15      H      0.677360000000     0.199980000000     0.222840000000     0.0450276  
H16      H      0.674260000000     0.199940000000     0.094270000000     0.0449678  
H17      H      0.947090000000     0.396440000000     0.256080000000     0.0452295  
H18      H      0.947830000000     0.524000000000     0.256080000000     0.0451857  
H19      H      0.001740000000     0.550800000000     0.312030000000     0.0457851  
H20      H      0.001010000000     0.423250000000     0.312030000000     0.0457466  
H21      H      0.001820000000     0.550860000000     0.506660000000     0.0456342  
H22      H      0.001030000000     0.423280000000     0.506560000000     0.0455722  
H23      H      0.946820000000     0.396340000000     0.061450000000     0.0451014  
H24      H      0.947610000000     0.523920000000     0.061550000000     0.0450422  
H25      H      0.447930000000     0.674200000000     0.343960000000     0.0449159  
H26      H      0.452690000000     0.676790000000     0.472510000000     0.0450336  
H27      H      0.452780000000     0.748900000000     0.472390000000     0.044998   
H28      H      0.448030000000     0.746310000000     0.343840000000     0.0448839  
H29      H      0.201890000000     0.499130000000     0.474420000000     0.0449248  
H30      H      0.199120000000     0.496290000000     0.345840000000     0.0450021  
H31      H      0.271260000000     0.496420000000     0.345640000000     0.045027   
H32      H      0.274030000000     0.499290000000     0.474210000000     0.0449405  
H33      H      0.674680000000     0.448270000000     0.094690000000     0.0449306  
H34      H      0.677590000000     0.450610000000     0.223270000000     0.0449889  
H35      H      0.749720000000     0.450710000000     0.222830000000     0.0449756  
H36      H      0.746820000000     0.448390000000     0.094250000000     0.044914   
H37      H      0.495780000000     0.270560000000     0.096430000000     0.0450391  
H38      H      0.501140000000     0.273070000000     0.224970000000     0.0448716  
H39      H      0.501020000000     0.200960000000     0.224870000000     0.0448992  
H40      H      0.495660000000     0.198430000000     0.096330000000     0.0450332  
H41      H      0.424440000000     0.396230000000     0.061490000000     0.0453527  
H42      H      0.551210000000     0.524190000000     0.063500000000     0.0452479  
H43      H      0.524270000000     0.551190000000     0.507830000000     0.0453476  
H44      H      0.397510000000     0.423230000000     0.505820000000     0.045261   
H45      H      0.423920000000     0.396770000000     0.256080000000     0.0451793  
H46      H      0.552000000000     0.523410000000     0.258090000000     0.0452807  
H47      H      0.524980000000     0.550470000000     0.313240000000     0.045157   
H48      H      0.396900000000     0.423820000000     0.311230000000     0.0452885  
H49      H      0.423630000000     0.999570000000     0.755500000000     0.0451356  
H50      H      0.551930000000     0.001750000000     0.757520000000     0.0453334  
H51      H      0.525040000000     0.947620000000     0.812670000000     0.0451495  
H52      H      0.396750000000     0.945450000000     0.810650000000     0.0453177  
H53      H      0.424250000000     0.000870000000     0.560960000000     0.0453686  
H54      H      0.551260000000     0.000460000000     0.562890000000     0.0453201  
H55      H      0.524460000000     0.946490000000     0.007200000000     0.0453229  
H56      H      0.397450000000     0.946900000000     0.005270000000     0.045276   
H57      H      0.201980000000     0.675440000000     0.974050000000     0.0449878  
H58      H      0.199470000000     0.674830000000     0.845470000000     0.0450464  
H59      H      0.271630000000     0.746990000000     0.845150000000     0.0450327  
H60      H      0.274150000000     0.747590000000     0.973730000000     0.04497    
H61      H      0.746440000000     0.272070000000     0.593930000000     0.0449326  
H62      H      0.749540000000     0.272130000000     0.722500000000     0.0450257  
H63      H      0.677360000000     0.199980000000     0.722840000000     0.0450174  
H64      H      0.674260000000     0.199940000000     0.594270000000     0.0449698  
H65      H      0.947100000000     0.396450000000     0.756080000000     0.0452396  
H66      H      0.947830000000     0.524000000000     0.756080000000     0.0451988  
H67      H      0.001740000000     0.550800000000     0.812030000000     0.0457699  
H68      H      0.001010000000     0.423250000000     0.812030000000     0.0457326  
H69      H      0.001820000000     0.550860000000     0.006660000000     0.0456325  
H70      H      0.001030000000     0.423280000000     0.006560000000     0.0455613  
H71      H      0.946820000000     0.396340000000     0.561450000000     0.0450885  
H72      H      0.947610000000     0.523920000000     0.561550000000     0.045045   
H73      H      0.447930000000     0.674200000000     0.843960000000     0.0449207  
H74      H      0.452690000000     0.676790000000     0.972510000000     0.0450222  
H75      H      0.452780000000     0.748900000000     0.972390000000     0.0450085  
H76      H      0.448030000000     0.746300000000     0.843840000000     0.0448621  
H77      H      0.201890000000     0.499130000000     0.974420000000     0.0449189  
H78      H      0.199120000000     0.496290000000     0.845840000000     0.0450052  
H79      H      0.271270000000     0.496420000000     0.845640000000     0.0450334  
H80      H      0.274030000000     0.499280000000     0.974210000000     0.0449375  
H81      H      0.674680000000     0.448260000000     0.594690000000     0.0449402  
H82      H      0.677590000000     0.450610000000     0.723270000000     0.044983   
H83      H      0.749720000000     0.450710000000     0.722830000000     0.0450018  
H84      H      0.746820000000     0.448390000000     0.594250000000     0.0449099  
H85      H      0.495780000000     0.270560000000     0.596430000000     0.045041   
H86      H      0.501140000000     0.273070000000     0.724970000000     0.0448958  
H87      H      0.501020000000     0.200960000000     0.724870000000     0.0448813  
H88      H      0.495660000000     0.198430000000     0.596330000000     0.0450225  
H89      H      0.424440000000     0.396230000000     0.561490000000     0.0453669  
H90      H      0.551210000000     0.524190000000     0.563500000000     0.0452414  
H91      H      0.524280000000     0.551190000000     0.007830000000     0.0453453  
H92      H      0.397510000000     0.423230000000     0.005820000000     0.0452731  
H93      H      0.423920000000     0.396770000000     0.756080000000     0.0451749  
H94      H      0.552000000000     0.523410000000     0.758090000000     0.0452727  
H95      H      0.524980000000     0.550470000000     0.813240000000     0.045155   
H96      H      0.396900000000     0.423820000000     0.811230000000     0.0452865  
In1      In     0.535270000000     0.412680000000     0.160030000000     2.42108    
In2      In     0.413530000000     0.534640000000     0.409150000000     2.42101    
In3      In     0.852380000000     0.412940000000     0.158180000000     2.4221     
In4      In     0.096360000000     0.534290000000     0.410000000000     2.42215    
In5      In     0.534950000000     0.095600000000     0.159580000000     2.42203    
In6      In     0.413740000000     0.851670000000     0.408650000000     2.42212    
In7      In     0.535270000000     0.412680000000     0.660030000000     2.4211     
In8      In     0.413530000000     0.534640000000     0.909150000000     2.42101    
In9      In     0.852380000000     0.412940000000     0.658180000000     2.42197    
In10     In     0.096360000000     0.534290000000     0.910000000000     2.42243    
In11     In     0.534950000000     0.095600000000     0.659580000000     2.42226    
In12     In     0.413750000000     0.851670000000     0.908650000000     2.4221     
N1       N      0.489800000000     0.004720000000     0.252380000000    -0.175818   
N2       N      0.458890000000     0.942480000000     0.315790000000    -0.175862   
N3       N      0.489750000000     0.004700000000     0.066100000000    -0.175678   
N4       N      0.458950000000     0.942650000000     0.502070000000    -0.175789   
N5       N      0.196200000000     0.669000000000     0.409780000000    -0.176221   
N6       N      0.279030000000     0.751820000000     0.409400000000    -0.176228   
N7       N      0.752520000000     0.278240000000     0.158220000000    -0.176296   
N8       N      0.669680000000     0.195430000000     0.158600000000    -0.176226   
N9       N      0.943430000000     0.458220000000     0.251890000000    -0.17588    
N10      N      0.005410000000     0.489020000000     0.316220000000    -0.17519    
N11      N      0.005490000000     0.489090000000     0.502500000000    -0.175378   
N12      N      0.943150000000     0.458110000000     0.065610000000    -0.176017   
N13      N      0.448700000000     0.669350000000     0.408280000000    -0.176264   
N14      N      0.448810000000     0.752140000000     0.408150000000    -0.176284   
N15      N      0.195970000000     0.499300000000     0.410130000000    -0.176242   
N16      N      0.278790000000     0.499470000000     0.409890000000    -0.176213   
N17      N      0.670000000000     0.447820000000     0.159030000000    -0.176259   
N18      N      0.752800000000     0.447960000000     0.158520000000    -0.176236   
N19      N      0.500070000000     0.277960000000     0.160670000000    -0.176327   
N20      N      0.499930000000     0.195160000000     0.160550000000    -0.17626    
N21      N      0.489840000000     0.458180000000     0.066660000000    -0.175746   
N22      N      0.458880000000     0.489230000000     0.502650000000    -0.175767   
N23      N      0.489980000000     0.458060000000     0.252950000000    -0.175864   
N24      N      0.458910000000     0.489180000000     0.316370000000    -0.175839   
N25      N      0.489800000000     0.004720000000     0.752380000000    -0.175909   
N26      N      0.458880000000     0.942480000000     0.815790000000    -0.175799   
N27      N      0.489750000000     0.004700000000     0.566100000000    -0.175679   
N28      N      0.458950000000     0.942650000000     0.002070000000    -0.175775   
N29      N      0.196200000000     0.669000000000     0.909770000000    -0.176213   
N30      N      0.279030000000     0.751820000000     0.909400000000    -0.176289   
N31      N      0.752520000000     0.278240000000     0.658220000000    -0.176295   
N32      N      0.669670000000     0.195430000000     0.658600000000    -0.176273   
N33      N      0.943430000000     0.458220000000     0.751890000000    -0.175815   
N34      N      0.005410000000     0.489030000000     0.816220000000    -0.17519    
N35      N      0.005490000000     0.489090000000     0.002500000000    -0.175468   
N36      N      0.943160000000     0.458110000000     0.565610000000    -0.175989   
N37      N      0.448700000000     0.669350000000     0.908280000000    -0.176265   
N38      N      0.448810000000     0.752140000000     0.908140000000    -0.176282   
N39      N      0.195970000000     0.499310000000     0.910130000000    -0.176281   
N40      N      0.278790000000     0.499470000000     0.909890000000    -0.176216   
N41      N      0.670000000000     0.447820000000     0.659030000000    -0.176252   
N42      N      0.752800000000     0.447960000000     0.658520000000    -0.176176   
N43      N      0.500070000000     0.277960000000     0.660670000000    -0.176298   
N44      N      0.499930000000     0.195160000000     0.660550000000    -0.176322   
N45      N      0.489840000000     0.458180000000     0.566660000000    -0.175762   
N46      N      0.458880000000     0.489230000000     0.002650000000    -0.175752   
N47      N      0.489980000000     0.458060000000     0.752950000000    -0.175888   
N48      N      0.458910000000     0.489180000000     0.816370000000    -0.175839   
O1       O      0.481160000000     0.403410000000     0.113250000000    -0.49729    
O2       O      0.544260000000     0.467120000000     0.114250000000    -0.498199   
O3       O      0.480960000000     0.403650000000     0.205670000000    -0.498682   
O4       O      0.514960000000     0.345250000000     0.192390000000    -0.496489   
O5       O      0.602570000000     0.433590000000     0.127550000000    -0.496261   
O6       O      0.512290000000     0.344010000000     0.128490000000    -0.495188   
O7       O      0.544710000000     0.466690000000     0.206670000000    -0.497683   
O8       O      0.604060000000     0.434980000000     0.191470000000    -0.495358   
O9       O      0.404490000000     0.480260000000     0.455010000000    -0.498223   
O10      O      0.467590000000     0.543970000000     0.456010000000    -0.4973     
O11      O      0.467900000000     0.543630000000     0.363590000000    -0.498526   
O12      O      0.344770000000     0.512230000000     0.377590000000    -0.495244   
O13      O      0.436370000000     0.603340000000     0.440590000000    -0.495224   
O14      O      0.346180000000     0.513820000000     0.441510000000    -0.496318   
O15      O      0.404140000000     0.480590000000     0.362600000000    -0.497732   
O16      O      0.433950000000     0.602040000000     0.376680000000    -0.496386   
O17      O      0.897430000000     0.403690000000     0.204600000000    -0.497594   
O18      O      0.897810000000     0.467200000000     0.204580000000    -0.497752   
O19      O      0.897140000000     0.403570000000     0.112170000000    -0.498595   
O20      O      0.805090000000     0.344880000000     0.126170000000    -0.496211   
O21      O      0.806630000000     0.435020000000     0.190260000000    -0.495867   
O22      O      0.806510000000     0.344950000000     0.190090000000    -0.495783   
O23      O      0.897500000000     0.467060000000     0.112210000000    -0.498547   
O24      O      0.805350000000     0.434070000000     0.126330000000    -0.496064   
O25      O      0.051010000000     0.480040000000     0.363550000000    -0.497574   
O26      O      0.051340000000     0.543530000000     0.363550000000    -0.49762    
O27      O      0.051160000000     0.480140000000     0.455920000000    -0.498474   
O28      O      0.143400000000     0.513340000000     0.442090000000    -0.496179   
O29      O      0.143490000000     0.602490000000     0.441900000000    -0.495941   
O30      O      0.142120000000     0.512060000000     0.378170000000    -0.495855   
O31      O      0.051570000000     0.543650000000     0.455980000000    -0.498535   
O32      O      0.142380000000     0.602150000000     0.377970000000    -0.495879   
O33      O      0.544100000000     0.050360000000     0.113720000000    -0.498296   
O34      O      0.480890000000     0.050610000000     0.112770000000    -0.497417   
O35      O      0.544500000000     0.051110000000     0.206160000000    -0.497793   
O36      O      0.603780000000     0.142100000000     0.191020000000    -0.495255   
O37      O      0.511980000000     0.141320000000     0.128200000000    -0.495329   
O38      O      0.602190000000     0.142260000000     0.127100000000    -0.496444   
O39      O      0.480630000000     0.050010000000     0.205130000000    -0.498801   
O40      O      0.514710000000     0.142640000000     0.192100000000    -0.496801   
O41      O      0.467820000000     0.896740000000     0.455420000000    -0.497491   
O42      O      0.404590000000     0.896940000000     0.454480000000    -0.498267   
O43      O      0.468040000000     0.897190000000     0.363050000000    -0.498878   
O44      O      0.434190000000     0.804660000000     0.376360000000    -0.496613   
O45      O      0.346360000000     0.805160000000     0.441000000000    -0.496389   
O46      O      0.436550000000     0.805950000000     0.440270000000    -0.495448   
O47      O      0.404200000000     0.896140000000     0.362050000000    -0.497971   
O48      O      0.345070000000     0.805010000000     0.377070000000    -0.495462   
O49      O      0.481160000000     0.403410000000     0.613250000000    -0.497294   
O50      O      0.544260000000     0.467120000000     0.614250000000    -0.49813    
O51      O      0.480960000000     0.403650000000     0.705670000000    -0.4987     
O52      O      0.514960000000     0.345250000000     0.692390000000    -0.496491   
O53      O      0.602570000000     0.433590000000     0.627560000000    -0.496427   
O54      O      0.512290000000     0.344010000000     0.628490000000    -0.495185   
O55      O      0.544710000000     0.466680000000     0.706670000000    -0.497824   
O56      O      0.604070000000     0.434980000000     0.691480000000    -0.49517    
O57      O      0.404490000000     0.480260000000     0.955010000000    -0.498226   
O58      O      0.467590000000     0.543970000000     0.956010000000    -0.497302   
O59      O      0.467900000000     0.543630000000     0.863590000000    -0.498529   
O60      O      0.344770000000     0.512230000000     0.877590000000    -0.495247   
O61      O      0.436370000000     0.603340000000     0.940590000000    -0.495228   
O62      O      0.346180000000     0.513820000000     0.941510000000    -0.496323   
O63      O      0.404140000000     0.480590000000     0.862600000000    -0.497735   
O64      O      0.433950000000     0.602040000000     0.876680000000    -0.496386   
O65      O      0.897430000000     0.403690000000     0.704600000000    -0.497521   
O66      O      0.897810000000     0.467210000000     0.704580000000    -0.497538   
O67      O      0.897140000000     0.403570000000     0.612170000000    -0.498569   
O68      O      0.805090000000     0.344880000000     0.626170000000    -0.496199   
O69      O      0.806630000000     0.435020000000     0.690260000000    -0.495823   
O70      O      0.806510000000     0.344950000000     0.690090000000    -0.495776   
O71      O      0.897500000000     0.467060000000     0.612210000000    -0.49852    
O72      O      0.805350000000     0.434070000000     0.626330000000    -0.496165   
O73      O      0.051020000000     0.480040000000     0.863550000000    -0.49745    
O74      O      0.051340000000     0.543530000000     0.863550000000    -0.497665   
O75      O      0.051160000000     0.480150000000     0.955920000000    -0.498667   
O76      O      0.143400000000     0.513340000000     0.942090000000    -0.496227   
O77      O      0.143480000000     0.602490000000     0.941900000000    -0.495955   
O78      O      0.142120000000     0.512060000000     0.878170000000    -0.495878   
O79      O      0.051570000000     0.543650000000     0.955980000000    -0.498573   
O80      O      0.142380000000     0.602140000000     0.877970000000    -0.495926   
O81      O      0.544100000000     0.050360000000     0.613720000000    -0.498321   
O82      O      0.480890000000     0.050610000000     0.612770000000    -0.497435   
O83      O      0.544500000000     0.051110000000     0.706160000000    -0.497876   
O84      O      0.603770000000     0.142100000000     0.691020000000    -0.495275   
O85      O      0.511980000000     0.141320000000     0.628210000000    -0.495557   
O86      O      0.602200000000     0.142260000000     0.627100000000    -0.496504   
O87      O      0.480640000000     0.050010000000     0.705130000000    -0.499022   
O88      O      0.514710000000     0.142640000000     0.692100000000    -0.496869   
O89      O      0.467820000000     0.896740000000     0.955420000000    -0.497563   
O90      O      0.404590000000     0.896940000000     0.954480000000    -0.4982     
O91      O      0.468050000000     0.897190000000     0.863050000000    -0.49875    
O92      O      0.434190000000     0.804660000000     0.876360000000    -0.496693   
O93      O      0.346360000000     0.805160000000     0.941000000000    -0.496368   
O94      O      0.436550000000     0.805950000000     0.940270000000    -0.495539   
O95      O      0.404200000000     0.896140000000     0.862050000000    -0.497838   
O96      O      0.345070000000     0.805010000000     0.877080000000    -0.495575   


