data_structure

_audit_creation_method RASPA-1.0
_audit_creation_date 2023-5-22
_audit_author_name 'Poobodin Mano'

_cell_length_a    25.4557
_cell_length_b    26.6223
_cell_length_c    23.6636
_cell_angle_alpha 90
_cell_angle_beta  90
_cell_angle_gamma 90
_cell_volume      16036.6

_symmetry_cell_setting          triclinic
_symmetry_space_group_name_Hall 'P 1'
_symmetry_space_group_name_H-M  'P 1'
_symmetry_Int_Tables_number     1

_symmetry_equiv_pos_as_xyz 'x,y,z'

loop_
_atom_site_label
_atom_site_type_symbol
_atom_site_fract_x
_atom_site_fract_y
_atom_site_fract_z
_atom_site_charge
C1       C      0.820170000000     0.411720000000     0.852870000000     0.414307   
C2       C      0.933210000000     0.410350000000     0.981390000000     0.422318   
C3       C      0.818000000000     0.280740000000     0.976480000000     0.418783   
C4       C      0.933450000000     0.281030000000     0.852860000000     0.423481   
C5       C      0.062510000000     0.536860000000     0.104630000000     0.418954   
C6       C      0.186610000000     0.662780000000     0.097220000000     0.422494   
C7       C      0.066740000000     0.662960000000     0.222430000000     0.411605   
C8       C      0.196020000000     0.539200000000     0.216570000000     0.419198   
C9       C      0.436740000000     0.916950000000     0.968660000000     0.420519   
C10      C      0.317160000000     0.917070000000     0.852050000000     0.417653   
C11      C      0.435600000000     0.785880000000     0.849750000000     0.415732   
C12      C      0.314390000000     0.788050000000     0.970750000000     0.414796   
C13      C      0.692760000000     0.153750000000     0.103910000000     0.427996   
C14      C      0.563260000000     0.039490000000     0.099880000000     0.418183   
C15      C      0.679110000000     0.027950000000     0.228820000000     0.426633   
C16      C      0.568410000000     0.163100000000     0.226780000000     0.422309   
C17      C      0.320450000000     0.413470000000     0.346280000000     0.41593    
C18      C      0.441250000000     0.292020000000     0.349460000000     0.41785    
C19      C      0.439320000000     0.409840000000     0.480400000000     0.423672   
C20      C      0.314020000000     0.293940000000     0.476170000000     0.418922   
C21      C      0.688580000000     0.664970000000     0.606230000000     0.421634   
C22      C      0.696210000000     0.539030000000     0.724370000000     0.423711   
C23      C      0.561550000000     0.657810000000     0.724730000000     0.423533   
C24      C      0.565830000000     0.536310000000     0.606950000000     0.421726   
C25      C      0.944340000000     0.792580000000     0.349680000000     0.420271   
C26      C      0.950580000000     0.905580000000     0.468920000000     0.420672   
C27      C      0.807570000000     0.904310000000     0.355740000000     0.415836   
C28      C      0.813880000000     0.790190000000     0.476710000000     0.412782   
C29      C      0.062310000000     0.159520000000     0.722960000000     0.423185   
C30      C      0.188620000000     0.043050000000     0.727230000000     0.420389   
C31      C      0.073530000000     0.034340000000     0.595880000000     0.418818   
C32      C      0.185070000000     0.168370000000     0.600960000000     0.421963   
C33      C      0.016490000000     0.964290000000     0.588410000000     0.0412643  
C34      C      0.046520000000     0.004430000000     0.505830000000     0.0485635  
C35      C      0.986460000000     0.931640000000     0.555730000000     0.0364079  
C36      C      0.016880000000     0.971300000000     0.472260000000     0.0312769  
C37      C      0.770950000000     0.712420000000     0.492220000000     0.0403407  
C38      C      0.761100000000     0.777800000000     0.558350000000     0.046783   
C39      C      0.739280000000     0.681600000000     0.525300000000     0.0377206  
C40      C      0.728590000000     0.747280000000     0.592030000000     0.0315746  
C41      C      0.301480000000     0.225160000000     0.538250000000     0.0430415  
C42      C      0.228610000000     0.273080000000     0.509190000000     0.0483364  
C43      C      0.268450000000     0.194250000000     0.569610000000     0.0354206  
C44      C      0.194690000000     0.242360000000     0.540990000000     0.025939   
C45      C      0.523330000000     0.514370000000     0.521450000000     0.0446409  
C46      C      0.513530000000     0.462530000000     0.601340000000     0.051203   
C47      C      0.491790000000     0.481940000000     0.490300000000     0.0376826  
C48      C      0.481530000000     0.429310000000     0.570410000000     0.0323966  
C49      C      0.755320000000     0.977650000000     0.346130000000     0.0428674  
C50      C      0.756980000000     0.917780000000     0.272880000000     0.0476672  
C51      C      0.722190000000     0.007930000000     0.313930000000     0.0392529  
C52      C      0.723340000000     0.947790000000     0.240070000000     0.0289848  
C53      C      0.452870000000     0.221330000000     0.289830000000     0.0409532  
C54      C      0.526190000000     0.269810000000     0.316280000000     0.0471015  
C55      C      0.485490000000     0.189470000000     0.259120000000     0.0343733  
C56      C      0.559670000000     0.238180000000     0.285110000000     0.0309624  
C57      C      0.290520000000     0.952980000000     0.765000000000     0.0427794  
C58      C      0.249500000000     0.978430000000     0.849420000000     0.0482789  
C59      C      0.257720000000     0.984760000000     0.734430000000     0.0354019  
C60      C      0.216420000000     0.011180000000     0.819230000000     0.0256398  
C61      C      0.515920000000     0.742910000000     0.834800000000     0.0422305  
C62      C      0.445780000000     0.731050000000     0.771340000000     0.0480754  
C63      C      0.546810000000     0.710370000000     0.803000000000     0.0389039  
C64      C      0.476370000000     0.697780000000     0.738940000000     0.027074   
C65      C      0.496040000000     0.978500000000     0.090420000000     0.0443472  
C66      C      0.535060000000     0.012940000000     0.008970000000     0.0500537  
C67      C      0.464260000000     0.948360000000     0.056700000000     0.0353784  
C68      C      0.502870000000     0.983050000000     0.974260000000     0.0258106  
C69      C      0.026160000000     0.686210000000     0.308820000000     0.0403528  
C70      C      0.018340000000     0.738880000000     0.229370000000     0.0458689  
C71      C      0.995990000000     0.719710000000     0.340310000000     0.0366636  
C72      C      0.988000000000     0.773180000000     0.260600000000     0.0344801  
C73      C      0.300330000000     0.734250000000     0.049270000000     0.0405381  
C74      C      0.231510000000     0.749460000000     0.985060000000     0.0471355  
C75      C      0.267380000000     0.703290000000     0.080810000000     0.0358107  
C76      C      0.197630000000     0.718670000000     0.016610000000     0.027599   
C77      C      0.268290000000     0.486550000000     0.335470000000     0.0408513  
C78      C      0.284260000000     0.434620000000     0.256810000000     0.0469567  
C79      C      0.237760000000     0.518080000000     0.302000000000     0.0345278  
C80      C      0.253670000000     0.466240000000     0.222330000000     0.0244798  
C81      C      0.049510000000     0.218380000000     0.796790000000     0.0469788  
C82      C      0.976580000000     0.188290000000     0.745860000000     0.0519105  
C83      C      0.016390000000     0.248200000000     0.829390000000     0.0384349  
C84      C      0.942520000000     0.218010000000     0.778660000000     0.0337928  
C85      C      0.735100000000     0.245980000000     0.999710000000     0.0443004  
C86      C      0.810700000000     0.218230000000     0.047710000000     0.0505349  
C87      C      0.704330000000     0.214000000000     0.032350000000     0.0394187  
C88      C      0.780170000000     0.185570000000     0.081010000000     0.0289097  
C89      C      0.747170000000     0.466120000000     0.842560000000     0.0419667  
C90      C      0.804970000000     0.454240000000     0.766090000000     0.0485259  
C91      C      0.716540000000     0.497920000000     0.809540000000     0.0370078  
C92      C      0.774680000000     0.486680000000     0.732250000000     0.0319837  
C93      C      0.040450000000     0.493920000000     0.020350000000     0.0451243  
C94      C      0.985630000000     0.486240000000     0.099990000000     0.0488409  
C95      C      0.007220000000     0.462530000000     0.989940000000     0.036698   
C96      C      0.951530000000     0.454400000000     0.069750000000     0.0316064  
H1       H      0.963040000000     0.903950000000     0.578000000000     0.0539732  
H2       H      0.015310000000     0.959970000000     0.633970000000     0.0526693  
H3       H      0.070430000000     0.032750000000     0.485330000000     0.0648232  
H4       H      0.080860000000     0.011050000000     0.341040000000     0.176349   
H5       H      0.732400000000     0.643750000000     0.510000000000     0.0560541  
H6       H      0.786650000000     0.697140000000     0.453230000000     0.0506536  
H7       H      0.769290000000     0.815870000000     0.571920000000     0.0642049  
H8       H      0.698820000000     0.849730000000     0.690590000000     0.174559   
H9       H      0.286690000000     0.163480000000     0.592390000000     0.0536754  
H10      H      0.343240000000     0.217050000000     0.538560000000     0.0533537  
H11      H      0.212300000000     0.304330000000     0.485700000000     0.0542698  
H12      H      0.112970000000     0.306520000000     0.469150000000     0.162978   
H13      H      0.484510000000     0.491920000000     0.446540000000     0.0531744  
H14      H      0.538960000000     0.547320000000     0.500380000000     0.0533194  
H15      H      0.521950000000     0.454310000000     0.645250000000     0.0657067  
H16      H      0.470450000000     0.340760000000     0.688550000000     0.173897   
H17      H      0.710160000000     0.043520000000     0.332140000000     0.0573506  
H18      H      0.766820000000     0.990800000000     0.387710000000     0.0535941  
H19      H      0.770060000000     0.882060000000     0.256020000000     0.0630915  
H20      H      0.687760000000     0.843910000000     0.199660000000     0.159363   
H21      H      0.466960000000     0.158140000000     0.237630000000     0.0514372  
H22      H      0.411090000000     0.213320000000     0.290400000000     0.0488831  
H23      H      0.542880000000     0.301560000000     0.338590000000     0.0646003  
H24      H      0.675030000000     0.317350000000     0.311430000000     0.174721   
H25      H      0.262900000000     0.985410000000     0.688940000000     0.05244    
H26      H      0.319140000000     0.930850000000     0.741910000000     0.0519535  
H27      H      0.245740000000     0.976250000000     0.894940000000     0.0569603  
H28      H      0.210860000000     0.058480000000     0.940220000000     0.162257   
H29      H      0.586650000000     0.704000000000     0.817600000000     0.0578517  
H30      H      0.533080000000     0.759720000000     0.872250000000     0.0533799  
H31      H      0.405740000000     0.738690000000     0.758450000000     0.0546808  
H32      H      0.377860000000     0.714500000000     0.658140000000     0.162495   
H33      H      0.437260000000     0.923310000000     0.078240000000     0.0529927  
H34      H      0.491880000000     0.975550000000     0.135920000000     0.0520286  
H35      H      0.562690000000     0.038550000000     0.989460000000     0.0561436  
H36      H      0.583140000000     0.028420000000     0.884290000000     0.165192   
H37      H      0.988270000000     0.709820000000     0.384000000000     0.0524672  
H38      H      0.040530000000     0.652570000000     0.329540000000     0.0506137  
H39      H      0.027000000000     0.747120000000     0.185510000000     0.0703154  
H40      H      0.983820000000     0.864180000000     0.144280000000     0.179599   
H41      H      0.283980000000     0.685770000000     0.118150000000     0.0522005  
H42      H      0.340380000000     0.739520000000     0.063770000000     0.0496339  
H43      H      0.216610000000     0.767740000000     0.947440000000     0.0557598  
H44      H      0.130240000000     0.736500000000     0.904910000000     0.163132   
H45      H      0.220110000000     0.550370000000     0.322540000000     0.0526691  
H46      H      0.273080000000     0.496140000000     0.379720000000     0.0509172  
H47      H      0.302720000000     0.401890000000     0.238230000000     0.0531893  
H48      H      0.274000000000     0.373370000000     0.139800000000     0.16247    
H49      H      0.034690000000     0.271310000000     0.861610000000     0.0557416  
H50      H      0.091310000000     0.219580000000     0.805590000000     0.0576059  
H51      H      0.960200000000     0.164610000000     0.713060000000     0.0665059  
H52      H      0.824610000000     0.164390000000     0.713180000000     0.174816   
H53      H      0.662410000000     0.214050000000     0.024060000000     0.0554333  
H54      H      0.715640000000     0.269100000000     0.968300000000     0.0538499  
H55      H      0.852790000000     0.219550000000     0.054250000000     0.0596363  
H56      H      0.882520000000     0.193880000000     0.154570000000     0.16688    
H57      H      0.681940000000     0.513950000000     0.829320000000     0.0547211  
H58      H      0.734840000000     0.459180000000     0.885740000000     0.0534132  
H59      H      0.839880000000     0.437160000000     0.748330000000     0.0673643  
H60      H      0.864070000000     0.474820000000     0.611390000000     0.174158   
H61      H      0.018180000000     0.454470000000     0.946570000000     0.0553903  
H62      H      0.074900000000     0.508670000000     0.999060000000     0.0583134  
H63      H      0.976520000000     0.495460000000     0.143480000000     0.0632652  
H64      H      0.857380000000     0.446820000000     0.186740000000     0.173277   
In1      In     0.876480000000     0.346320000000     0.916050000000     2.44673    
In2      In     0.127540000000     0.599740000000     0.161060000000     2.43735    
In3      In     0.376440000000     0.850920000000     0.910500000000     2.43931    
In4      In     0.626060000000     0.096350000000     0.165830000000     2.45307    
In5      In     0.378370000000     0.351930000000     0.412590000000     2.43049    
In6      In     0.629000000000     0.598970000000     0.665820000000     2.45117    
In7      In     0.878400000000     0.848630000000     0.413830000000     2.43939    
In8      In     0.126930000000     0.101090000000     0.660460000000     2.4439     
N1       N      0.045640000000     0.001150000000     0.563480000000    -0.176392   
N2       N      0.985010000000     0.935870000000     0.497970000000    -0.169011   
N3       N      0.782060000000     0.760260000000     0.508970000000    -0.17638    
N4       N      0.718420000000     0.698260000000     0.575410000000    -0.168121   
N5       N      0.281480000000     0.264180000000     0.507770000000    -0.1764     
N6       N      0.215110000000     0.201890000000     0.570650000000    -0.168093   
N7       N      0.534220000000     0.504570000000     0.576770000000    -0.174896   
N8       N      0.470490000000     0.439580000000     0.514180000000    -0.168337   
N9       N      0.773310000000     0.933110000000     0.325140000000    -0.174926   
N10      N      0.707550000000     0.994180000000     0.260320000000    -0.16808    
N11      N      0.473300000000     0.261190000000     0.318570000000    -0.176864   
N12      N      0.538810000000     0.197060000000     0.256960000000    -0.169578   
N13      N      0.285980000000     0.949510000000     0.822270000000    -0.175454   
N14      N      0.220290000000     0.013580000000     0.760800000000    -0.167527   
N15      N      0.465670000000     0.753410000000     0.818730000000    -0.176514   
N16      N      0.527850000000     0.688150000000     0.754770000000    -0.166708   
N17      N      0.531610000000     0.010370000000     0.066540000000    -0.174973   
N18      N      0.467860000000     0.949640000000     0.998830000000    -0.167601   
N19      N      0.037010000000     0.695760000000     0.253420000000    -0.175049   
N20      N      0.976060000000     0.762760000000     0.316590000000    -0.168088   
N21      N      0.282340000000     0.757140000000     0.001490000000    -0.176956   
N22      N      0.216330000000     0.694820000000     0.064690000000    -0.16801    
N23      N      0.291050000000     0.444710000000     0.312970000000    -0.177001   
N24      N      0.229270000000     0.507840000000     0.245880000000    -0.168084   
N25      N      0.029590000000     0.188740000000     0.754980000000    -0.174232   
N26      N      0.963120000000     0.248930000000     0.820290000000    -0.168076   
N27      N      0.788080000000     0.248290000000     0.007720000000    -0.174499   
N28      N      0.726190000000     0.183780000000     0.073060000000    -0.167238   
N29      N      0.790970000000     0.444020000000     0.820660000000    -0.175103   
N30      N      0.729490000000     0.508180000000     0.754400000000    -0.16908    
N31      N      0.029680000000     0.505660000000     0.075230000000    -0.175159   
N32      N      0.963070000000     0.442170000000     0.014130000000    -0.168874   
O1       O      0.885370000000     0.289440000000     0.844630000000    -0.480324   
O2       O      0.952730000000     0.306150000000     0.893150000000    -0.493175   
O3       O      0.894790000000     0.385470000000     0.999720000000    -0.480724   
O4       O      0.860070000000     0.388990000000     0.834110000000    -0.486382   
O5       O      0.866920000000     0.285650000000     0.983580000000    -0.487285   
O6       O      0.808980000000     0.401640000000     0.903590000000    -0.488086   
O7       O      0.942920000000     0.402500000000     0.929800000000    -0.497042   
O8       O      0.798780000000     0.308760000000     0.938710000000    -0.486437   
O9       O      0.179150000000     0.530010000000     0.167640000000    -0.484216   
O10      O      0.177860000000     0.579280000000     0.237560000000    -0.489564   
O11      O      0.141750000000     0.647480000000     0.083160000000    -0.47217    
O12      O      0.103820000000     0.554900000000     0.083310000000    -0.478695   
O13      O      0.084710000000     0.622440000000     0.242370000000    -0.484411   
O14      O      0.053950000000     0.550260000000     0.155020000000    -0.494937   
O15      O      0.202380000000     0.645260000000     0.143910000000    -0.494736   
O16      O      0.078910000000     0.671020000000     0.171560000000    -0.489568   
O17      O      0.299030000000     0.810560000000     0.926860000000    -0.498536   
O18      O      0.361470000000     0.796950000000     0.984230000000    -0.491682   
O19      O      0.313230000000     0.911350000000     0.904880000000    -0.493326   
O20      O      0.440700000000     0.910200000000     0.916150000000    -0.48181    
O21      O      0.389000000000     0.797030000000     0.836570000000    -0.492237   
O22      O      0.402330000000     0.889580000000     0.991850000000    -0.492958   
O23      O      0.351490000000     0.889710000000     0.828800000000    -0.485213   
O24      O      0.452260000000     0.807400000000     0.893760000000    -0.493553   
O25      O      0.548120000000     0.128400000000     0.197700000000    -0.498117   
O26      O      0.617800000000     0.162960000000     0.225880000000    -0.480744   
O27      O      0.597010000000     0.069420000000     0.079840000000    -0.488184   
O28      O      0.643400000000     0.155420000000     0.098380000000    -0.49054    
O29      O      0.657910000000     0.066550000000     0.249980000000    -0.489542   
O30      O      0.707920000000     0.122350000000     0.140150000000    -0.479577   
O31      O      0.561180000000     0.038480000000     0.153250000000    -0.488383   
O32      O      0.674180000000     0.024910000000     0.176010000000    -0.479718   
O33      O      0.297560000000     0.330530000000     0.447240000000    -0.495755   
O34      O      0.362980000000     0.286810000000     0.473200000000    -0.48535    
O35      O      0.392280000000     0.285300000000     0.353370000000    -0.493116   
O36      O      0.343220000000     0.374760000000     0.327420000000    -0.495753   
O37      O      0.413480000000     0.372740000000     0.498170000000    -0.478566   
O38      O      0.326870000000     0.420910000000     0.398540000000    -0.490487   
O39      O      0.458290000000     0.329270000000     0.376870000000    -0.493392   
O40      O      0.433650000000     0.417860000000     0.428100000000    -0.491198   
O41      O      0.578370000000     0.528380000000     0.657840000000    -0.493265   
O42      O      0.585080000000     0.575890000000     0.586060000000    -0.484165   
O43      O      0.703460000000     0.551580000000     0.673730000000    -0.48668    
O44      O      0.676480000000     0.621870000000     0.588060000000    -0.481487   
O45      O      0.551030000000     0.639750000000     0.676880000000    -0.483505   
O46      O      0.671370000000     0.673860000000     0.655050000000    -0.482947   
O47      O      0.654660000000     0.557020000000     0.745350000000    -0.490972   
O48      O      0.606910000000     0.646500000000     0.742400000000    -0.480966   
O49      O      0.825850000000     0.834520000000     0.490570000000    -0.491278   
O50      O      0.834120000000     0.775550000000     0.430890000000    -0.49552    
O51      O      0.937870000000     0.912670000000     0.418130000000    -0.478473   
O52      O      0.919250000000     0.829840000000     0.331140000000    -0.470732   
O53      O      0.824440000000     0.862480000000     0.338450000000    -0.483552   
O54      O      0.936080000000     0.783690000000     0.401450000000    -0.491876   
O55      O      0.926220000000     0.869720000000     0.492060000000    -0.493521   
O56      O      0.825890000000     0.917840000000     0.402910000000    -0.490102   
O57      O      0.205020000000     0.134060000000     0.630910000000    -0.494359   
O58      O      0.135640000000     0.167900000000     0.600620000000    -0.479768   
O59      O      0.152280000000     0.070440000000     0.745990000000    -0.477605   
O60      O      0.111550000000     0.159030000000     0.729610000000    -0.481464   
O61      O      0.101120000000     0.069130000000     0.575040000000    -0.492228   
O62      O      0.045750000000     0.130640000000     0.684550000000    -0.488961   
O63      O      0.193310000000     0.044720000000     0.674060000000    -0.493144   
O64      O      0.073130000000     0.033180000000     0.649200000000    -0.494299   
O65      O      0.973610000000     0.000160000000     0.367780000000    -0.139604   
O66      O      0.078650000000     0.011110000000     0.382820000000    -0.269486   
O67      O      0.037330000000     0.918170000000     0.372070000000    -0.149212   
O68      O      0.724650000000     0.748640000000     0.710850000000    -0.147138   
O69      O      0.715690000000     0.837260000000     0.655580000000    -0.270034   
O70      O      0.635940000000     0.770440000000     0.651500000000    -0.153658   
O71      O      0.107420000000     0.266680000000     0.608790000000    -0.142993   
O72      O      0.117880000000     0.315250000000     0.509490000000    -0.260562   
O73      O      0.091030000000     0.216690000000     0.510480000000    -0.148135   
O74      O      0.478350000000     0.323680000000     0.571780000000    -0.150918   
O75      O      0.484910000000     0.371980000000     0.671950000000    -0.268615   
O76      O      0.394390000000     0.375880000000     0.612110000000    -0.148428   
O77      O      0.729480000000     0.948780000000     0.121390000000    -0.128129   
O78      O      0.713070000000     0.859430000000     0.173090000000    -0.255904   
O79      O      0.635540000000     0.928690000000     0.170450000000    -0.160184   
O80      O      0.646200000000     0.261320000000     0.215790000000    -0.153826   
O81      O      0.636830000000     0.310990000000     0.314820000000    -0.26983    
O82      O      0.663170000000     0.212470000000     0.315190000000    -0.1433     
O83      O      0.110520000000     0.032560000000     0.843780000000    -0.137522   
O84      O      0.180230000000     0.037590000000     0.929540000000    -0.259002   
O85      O      0.181460000000     0.108530000000     0.847770000000    -0.149414   
O86      O      0.449910000000     0.606500000000     0.685900000000    -0.143783   
O87      O      0.380220000000     0.682480000000     0.679300000000    -0.262443   
O88      O      0.471430000000     0.687550000000     0.620420000000    -0.150873   
O89      O      0.449380000000     0.005080000000     0.873110000000    -0.14658    
O90      O      0.547090000000     0.042360000000     0.885800000000    -0.261753   
O91      O      0.533330000000     0.942420000000     0.869190000000    -0.150026   
O92      O      0.987570000000     0.878960000000     0.261740000000    -0.137552   
O93      O      0.997020000000     0.832450000000     0.160880000000    -0.263912   
O94      O      0.904020000000     0.829580000000     0.216330000000    -0.13847    
O95      O      0.091090000000     0.731410000000     0.045370000000    -0.132837   
O96      O      0.120460000000     0.755440000000     0.939370000000    -0.258902   
O97      O      0.117270000000     0.657710000000     0.971370000000    -0.147592   
O98      O      0.267970000000     0.501020000000     0.111050000000    -0.144669   
O99      O      0.293800000000     0.404890000000     0.133410000000    -0.262271   
O100     O      0.191270000000     0.432670000000     0.131400000000    -0.152961   
O101     O      0.850560000000     0.264390000000     0.738370000000    -0.143749   
O102     O      0.863200000000     0.164950000000     0.718410000000    -0.267529   
O103     O      0.842920000000     0.196990000000     0.824500000000    -0.153527   
O104     O      0.807480000000     0.088790000000     0.118970000000    -0.127852   
O105     O      0.879000000000     0.162700000000     0.132030000000    -0.256705   
O106     O      0.791330000000     0.162130000000     0.196660000000    -0.145983   
O107     O      0.808510000000     0.558260000000     0.652680000000    -0.151907   
O108     O      0.854510000000     0.466770000000     0.650940000000    -0.267085   
O109     O      0.753850000000     0.476610000000     0.616040000000    -0.150863   
O110     O      0.896550000000     0.371880000000     0.114670000000    -0.148329   
O111     O      0.889890000000     0.460710000000     0.169900000000    -0.270331   
O112     O      0.841140000000     0.449470000000     0.069270000000    -0.153668   
S1       S      0.026210000000     0.975070000000     0.397840000000     0.295325   
S2       S      0.700790000000     0.775750000000     0.653280000000     0.294989   
S3       S      0.127170000000     0.259970000000     0.542490000000     0.294483   
S4       S      0.459270000000     0.374560000000     0.606500000000     0.29597    
S5       S      0.700030000000     0.921340000000     0.175630000000     0.293704   
S6       S      0.627250000000     0.255480000000     0.282490000000     0.295176   
S7       S      0.171760000000     0.047920000000     0.859990000000     0.29524    
S8       S      0.444640000000     0.668360000000     0.680500000000     0.294387   
S9       S      0.508120000000     0.992890000000     0.899990000000     0.294651   
S10      S      0.968620000000     0.829190000000     0.224960000000     0.295647   
S11      S      0.131120000000     0.715390000000     0.993180000000     0.294651   
S12      S      0.251230000000     0.451230000000     0.149000000000     0.29428    
S13      S      0.874020000000     0.211420000000     0.765140000000     0.2958     
S14      S      0.814360000000     0.149460000000     0.132710000000     0.295866   
S15      S      0.797700000000     0.497450000000     0.662180000000     0.295495   
S16      S      0.894110000000     0.433590000000     0.105860000000     0.294326   


