data_structure

_audit_creation_method RASPA-1.0
_audit_creation_date 2023-5-23
_audit_author_name 'Poobodin Mano'

_cell_length_a    29.0781
_cell_length_b    31.7413
_cell_length_c    31.2923
_cell_angle_alpha 89.9999
_cell_angle_beta  89.9994
_cell_angle_gamma 119.884
_cell_volume      25041.8

_symmetry_cell_setting          triclinic
_symmetry_space_group_name_Hall 'P 1'
_symmetry_space_group_name_H-M  'P 1'
_symmetry_Int_Tables_number     1

_symmetry_equiv_pos_as_xyz 'x,y,z'

loop_
_atom_site_label
_atom_site_type_symbol
_atom_site_fract_x
_atom_site_fract_y
_atom_site_fract_z
_atom_site_charge
C1       C      0.452950000000     0.623450000000     0.288860000000     0.412436   
C2       C      0.511910000000     0.533780000000     0.220280000000     0.411229   
C3       C      0.425190000000     0.485220000000     0.339870000000     0.408295   
C4       C      0.343420000000     0.493870000000     0.218670000000     0.416371   
C5       C      0.210000000000     0.624220000000     0.046650000000     0.415875   
C6       C      0.068990000000     0.540830000000     0.124890000000     0.409664   
C7       C      0.090210000000     0.477430000000     0.506130000000     0.408727   
C8       C      0.190230000000     0.493960000000     0.118470000000     0.415457   
C9       C      0.364390000000     0.780630000000     0.458190000000     0.402144   
C10      C      0.467280000000     0.909670000000     0.345430000000     0.402416   
C11      C      0.484220000000     0.915730000000     0.469600000000     0.402573   
C12      C      0.455700000000     0.780520000000     0.366040000000     0.401939   
C13      C      0.809920000000     0.341280000000     0.296650000000     0.41589    
C14      C      0.950930000000     0.424680000000     0.374890000000     0.409597   
C15      C      0.929700000000     0.488090000000     0.256120000000     0.408486   
C16      C      0.829690000000     0.471550000000     0.368460000000     0.415403   
C17      C      0.566980000000     0.342070000000     0.538850000000     0.412325   
C18      C      0.508010000000     0.431740000000     0.470280000000     0.411108   
C19      C      0.594700000000     0.480280000000     0.089860000000     0.408105   
C20      C      0.676510000000     0.471650000000     0.468660000000     0.416002   
C21      C      0.655530000000     0.184880000000     0.208180000000     0.402055   
C22      C      0.552640000000     0.055840000000     0.095420000000     0.402491   
C23      C      0.535710000000     0.049780000000     0.219600000000     0.402393   
C24      C      0.564230000000     0.185000000000     0.116030000000     0.402056   
C25      C      0.522210000000     0.271390000000     0.082680000000     0.0340095  
C26      C      0.598820000000     0.286760000000     0.044190000000     0.0332294  
C27      C      0.598330000000     0.247290000000     0.063970000000     0.0331796  
C28      C      0.521870000000     0.231730000000     0.102790000000     0.0327669  
C29      C      0.804820000000     0.488820000000     0.435710000000     0.032769   
C30      C      0.754630000000     0.482080000000     0.374240000000     0.0333454  
C31      C      0.715250000000     0.481860000000     0.399960000000     0.0331507  
C32      C      0.765700000000     0.489170000000     0.461430000000     0.0339555  
C33      C      0.786510000000     0.277190000000     0.246520000000     0.0339449  
C34      C      0.720470000000     0.279310000000     0.288780000000     0.0335953  
C35      C      0.681410000000     0.240080000000     0.266040000000     0.0331492  
C36      C      0.747180000000     0.237690000000     0.223630000000     0.0329272  
C37      C      0.449360000000     0.959320000000     0.298590000000     0.033231   
C38      C      0.532000000000     0.962160000000     0.296300000000     0.0336012  
C39      C      0.549140000000     0.997300000000     0.264580000000     0.0334956  
C40      C      0.467120000000     0.995630000000     0.267090000000     0.0331906  
C41      C      0.552810000000     0.969880000000     0.017090000000     0.0330485  
C42      C      0.470780000000     0.968220000000     0.514580000000     0.033538   
C43      C      0.487930000000     0.003370000000     0.546300000000     0.0336222  
C44      C      0.570560000000     0.006190000000     0.048580000000     0.0332426  
C45      C      0.972040000000     0.404440000000     0.442470000000     0.0335902  
C46      C      0.040310000000     0.460770000000     0.397650000000     0.0329627  
C47      C      0.076220000000     0.474260000000     0.431380000000     0.0335097  
C48      C      0.008130000000     0.417840000000     0.476270000000     0.0334405  
C49      C      0.979620000000     0.504740000000     0.147650000000     0.0330695  
C50      C      0.047880000000     0.561060000000     0.192470000000     0.0335484  
C51      C      0.011780000000     0.547670000000     0.226270000000     0.033441   
C52      C      0.943690000000     0.491240000000     0.181380000000     0.0334558  
C53      C      0.233420000000     0.688320000000     0.496530000000     0.0340171  
C54      C      0.299450000000     0.686190000000     0.538780000000     0.0335891  
C55      C      0.338510000000     0.725420000000     0.516040000000     0.0331788  
C56      C      0.272740000000     0.727830000000     0.473640000000     0.0328864  
C57      C      0.564670000000     0.556980000000     0.157170000000     0.033208   
C58      C      0.551880000000     0.488690000000     0.196750000000     0.0327303  
C59      C      0.573180000000     0.474940000000     0.163300000000     0.0329385  
C60      C      0.586420000000     0.543330000000     0.123660000000     0.0332825  
C61      C      0.433500000000     0.422190000000     0.373660000000     0.0333231  
C62      C      0.446730000000     0.490580000000     0.413310000000     0.032894   
C63      C      0.468040000000     0.476820000000     0.446760000000     0.0328269  
C64      C      0.455240000000     0.408540000000     0.407170000000     0.0332426  
C65      C      0.497710000000     0.694130000000     0.332680000000     0.0341012  
C66      C      0.421110000000     0.678760000000     0.294190000000     0.0333045  
C67      C      0.421590000000     0.718230000000     0.313980000000     0.0331915  
C68      C      0.498050000000     0.733780000000     0.352800000000     0.0327503  
C69      C      0.254230000000     0.476350000000     0.211440000000     0.034039   
C70      C      0.304670000000     0.483660000000     0.149970000000     0.0331982  
C71      C      0.265290000000     0.483420000000     0.124240000000     0.0332401  
C72      C      0.215100000000     0.476680000000     0.185720000000     0.0326369  
C73      C      0.452940000000     0.623440000000     0.788850000000     0.412273   
C74      C      0.511910000000     0.533770000000     0.720270000000     0.41113    
C75      C      0.425180000000     0.485210000000     0.839860000000     0.408209   
C76      C      0.343410000000     0.493860000000     0.718670000000     0.416387   
C77      C      0.210000000000     0.624220000000     0.546650000000     0.415604   
C78      C      0.068990000000     0.540830000000     0.624900000000     0.409657   
C79      C      0.090230000000     0.477420000000     0.006130000000     0.407994   
C80      C      0.190220000000     0.493950000000     0.618470000000     0.415275   
C81      C      0.364390000000     0.780630000000     0.958180000000     0.402385   
C82      C      0.467280000000     0.909660000000     0.845420000000     0.402429   
C83      C      0.484210000000     0.915720000000     0.969600000000     0.403246   
C84      C      0.455690000000     0.780510000000     0.866030000000     0.401948   
C85      C      0.809930000000     0.341290000000     0.796660000000     0.415622   
C86      C      0.950930000000     0.424680000000     0.874900000000     0.409773   
C87      C      0.929700000000     0.488100000000     0.756130000000     0.408514   
C88      C      0.829690000000     0.471550000000     0.868470000000     0.415756   
C89      C      0.566980000000     0.342070000000     0.038860000000     0.412474   
C90      C      0.508000000000     0.431740000000     0.970270000000     0.411001   
C91      C      0.594740000000     0.480300000000     0.589860000000     0.408294   
C92      C      0.676500000000     0.471650000000     0.968670000000     0.41722    
C93      C      0.655530000000     0.184890000000     0.708190000000     0.402422   
C94      C      0.552650000000     0.055850000000     0.595420000000     0.402406   
C95      C      0.535710000000     0.049790000000     0.719600000000     0.402596   
C96      C      0.564230000000     0.185000000000     0.616040000000     0.402344   
C97      C      0.522210000000     0.271400000000     0.582680000000     0.0340469  
C98      C      0.598820000000     0.286760000000     0.544190000000     0.0332596  
C99      C      0.598330000000     0.247290000000     0.563980000000     0.0332919  
C100     C      0.521880000000     0.231740000000     0.602800000000     0.0328218  
C101     C      0.804820000000     0.488830000000     0.935720000000     0.032685   
C102     C      0.754630000000     0.482090000000     0.874240000000     0.0333053  
C103     C      0.715250000000     0.481860000000     0.899970000000     0.0333457  
C104     C      0.765690000000     0.489170000000     0.961430000000     0.0342154  
C105     C      0.786510000000     0.277200000000     0.746530000000     0.0340076  
C106     C      0.720470000000     0.279320000000     0.788790000000     0.0335205  
C107     C      0.681420000000     0.240080000000     0.766050000000     0.0332661  
C108     C      0.747190000000     0.237700000000     0.723640000000     0.0329376  
C109     C      0.449370000000     0.959320000000     0.798580000000     0.0333035  
C110     C      0.532000000000     0.962150000000     0.796300000000     0.0336723  
C111     C      0.549150000000     0.997300000000     0.764580000000     0.0334767  
C112     C      0.467120000000     0.995630000000     0.767090000000     0.033178   
C113     C      0.552810000000     0.969890000000     0.517100000000     0.0330858  
C114     C      0.470780000000     0.968210000000     0.014580000000     0.0334531  
C115     C      0.487920000000     0.003360000000     0.046300000000     0.0335452  
C116     C      0.570560000000     0.006200000000     0.548590000000     0.0333787  
C117     C      0.972040000000     0.404440000000     0.942480000000     0.0332438  
C118     C      0.040310000000     0.460770000000     0.897660000000     0.0330738  
C119     C      0.076230000000     0.474260000000     0.931380000000     0.0335566  
C120     C      0.008140000000     0.417840000000     0.976270000000     0.0345442  
C121     C      0.979610000000     0.504750000000     0.647660000000     0.0330687  
C122     C      0.047880000000     0.561070000000     0.692480000000     0.0335108  
C123     C      0.011780000000     0.547670000000     0.726280000000     0.0335124  
C124     C      0.943690000000     0.491260000000     0.681390000000     0.0335236  
C125     C      0.233420000000     0.688310000000     0.996520000000     0.0348525  
C126     C      0.299450000000     0.686190000000     0.038780000000     0.033734   
C127     C      0.338510000000     0.725420000000     0.016040000000     0.0323088  
C128     C      0.272740000000     0.727820000000     0.973630000000     0.0328003  
C129     C      0.564670000000     0.556980000000     0.657170000000     0.0332425  
C130     C      0.551880000000     0.488690000000     0.696750000000     0.0328422  
C131     C      0.573190000000     0.474940000000     0.663300000000     0.0329025  
C132     C      0.586430000000     0.543340000000     0.623660000000     0.0332984  
C133     C      0.433490000000     0.422180000000     0.873650000000     0.0333582  
C134     C      0.446720000000     0.490570000000     0.913300000000     0.0329346  
C135     C      0.468030000000     0.476810000000     0.946750000000     0.0329195  
C136     C      0.455240000000     0.408530000000     0.907170000000     0.0333233  
C137     C      0.497710000000     0.694120000000     0.832680000000     0.0340385  
C138     C      0.421110000000     0.678760000000     0.794190000000     0.03339    
C139     C      0.421590000000     0.718220000000     0.813970000000     0.0331841  
C140     C      0.498050000000     0.733770000000     0.852790000000     0.0328127  
C141     C      0.254220000000     0.476340000000     0.711430000000     0.0340442  
C142     C      0.304660000000     0.483650000000     0.649970000000     0.0332628  
C143     C      0.265280000000     0.483420000000     0.624240000000     0.0332859  
C144     C      0.215090000000     0.476680000000     0.685710000000     0.0327166  
H1       H      0.491800000000     0.280130000000     0.091260000000     0.0442889  
H2       H      0.630230000000     0.307520000000     0.521410000000     0.0450155  
H3       H      0.629360000000     0.239310000000     0.055470000000     0.0460462  
H4       H      0.491070000000     0.211080000000     0.126030000000     0.0446805  
H5       H      0.839250000000     0.490870000000     0.451210000000     0.0438361  
H6       H      0.748280000000     0.478590000000     0.339960000000     0.0436484  
H7       H      0.680110000000     0.478320000000     0.384520000000     0.0436086  
H8       H      0.771320000000     0.491320000000     0.495780000000     0.0436031  
H9       H      0.827600000000     0.291200000000     0.237510000000     0.044098   
H10      H      0.707930000000     0.294710000000     0.314090000000     0.0446904  
H11      H      0.640400000000     0.226780000000     0.274940000000     0.0459567  
H12      H      0.759290000000     0.222460000000     0.197900000000     0.0448905  
H13      H      0.409720000000     0.945170000000     0.311400000000     0.0445051  
H14      H      0.559300000000     0.950290000000     0.306750000000     0.0463274  
H15      H      0.588930000000     0.010980000000     0.252190000000     0.0467444  
H16      H      0.440490000000     0.008130000000     0.256360000000     0.0443454  
H17      H      0.579430000000     0.957380000000     0.006360000000     0.0441365  
H18      H      0.430990000000     0.954540000000     0.502200000000     0.04673    
H19      H      0.460630000000     0.015230000000     0.556750000000     0.0463423  
H20      H      0.610210000000     0.020340000000     0.061390000000     0.044434   
H21      H      0.930990000000     0.377340000000     0.448390000000     0.044159   
H22      H      0.054660000000     0.479120000000     0.367250000000     0.0454628  
H23      H      0.116860000000     0.502550000000     0.425730000000     0.0447014  
H24      H      0.993570000000     0.400660000000     0.507080000000     0.0454092  
H25      H      0.965260000000     0.486390000000     0.117250000000     0.0453608  
H26      H      0.088930000000     0.588160000000     0.198390000000     0.0441354  
H27      H      0.026340000000     0.564850000000     0.257080000000     0.0453624  
H28      H      0.903060000000     0.462960000000     0.175720000000     0.0446589  
H29      H      0.192320000000     0.674310000000     0.487520000000     0.0441055  
H30      H      0.311990000000     0.670780000000     0.564090000000     0.0447031  
H31      H      0.379530000000     0.738720000000     0.524940000000     0.0459523  
H32      H      0.260630000000     0.743050000000     0.447910000000     0.0449272  
H33      H      0.561020000000     0.589120000000     0.153180000000     0.043665   
H34      H      0.538290000000     0.465700000000     0.224890000000     0.0450244  
H35      H      0.575130000000     0.441870000000     0.166910000000     0.044508   
H36      H      0.598650000000     0.565390000000     0.094940000000     0.0450004  
H37      H      0.421250000000     0.400130000000     0.344950000000     0.045101   
H38      H      0.444780000000     0.523640000000     0.416920000000     0.0445281  
H39      H      0.481630000000     0.499820000000     0.474890000000     0.0450067  
H40      H      0.458900000000     0.376400000000     0.403180000000     0.0437198  
H41      H      0.528120000000     0.685380000000     0.341270000000     0.0443211  
H42      H      0.389700000000     0.658000000000     0.271420000000     0.0449889  
H43      H      0.390570000000     0.726210000000     0.305480000000     0.0461257  
H44      H      0.528850000000     0.754430000000     0.376040000000     0.044719   
H45      H      0.248610000000     0.474190000000     0.245790000000     0.0435706  
H46      H      0.339820000000     0.487190000000     0.134520000000     0.0435217  
H47      H      0.271640000000     0.486920000000     0.089970000000     0.0435828  
H48      H      0.180680000000     0.474630000000     0.201210000000     0.0438516  
H49      H      0.491810000000     0.280140000000     0.591270000000     0.0443497  
H50      H      0.630230000000     0.307530000000     0.021420000000     0.0448765  
H51      H      0.629360000000     0.239310000000     0.555470000000     0.0461089  
H52      H      0.491080000000     0.211090000000     0.626040000000     0.0447197  
H53      H      0.839240000000     0.490880000000     0.951210000000     0.0439864  
H54      H      0.748290000000     0.478600000000     0.839970000000     0.0436953  
H55      H      0.680100000000     0.478320000000     0.884520000000     0.0435945  
H56      H      0.771310000000     0.491320000000     0.995790000000     0.0437977  
H57      H      0.827610000000     0.291210000000     0.737520000000     0.0441333  
H58      H      0.707940000000     0.294720000000     0.814100000000     0.0447804  
H59      H      0.640400000000     0.226780000000     0.774940000000     0.045982   
H60      H      0.759300000000     0.222470000000     0.697900000000     0.0449417  
H61      H      0.409720000000     0.945160000000     0.811390000000     0.0445568  
H62      H      0.559300000000     0.950280000000     0.806750000000     0.0463692  
H63      H      0.588940000000     0.010980000000     0.752190000000     0.0468028  
H64      H      0.440500000000     0.008130000000     0.756360000000     0.044409   
H65      H      0.579430000000     0.957390000000     0.506360000000     0.0443802  
H66      H      0.430990000000     0.954530000000     0.002190000000     0.0464966  
H67      H      0.460620000000     0.015220000000     0.056750000000     0.0462683  
H68      H      0.610210000000     0.020350000000     0.561390000000     0.0444897  
H69      H      0.930990000000     0.377350000000     0.948400000000     0.0444239  
H70      H      0.054670000000     0.479120000000     0.867250000000     0.0454792  
H71      H      0.116870000000     0.502550000000     0.925720000000     0.0448727  
H72      H      0.993580000000     0.400650000000     0.007080000000     0.0446715  
H73      H      0.965260000000     0.486400000000     0.617250000000     0.0454616  
H74      H      0.088930000000     0.588170000000     0.698400000000     0.0441887  
H75      H      0.026350000000     0.564860000000     0.757080000000     0.0453778  
H76      H      0.903060000000     0.462970000000     0.675730000000     0.0446969  
H77      H      0.192320000000     0.674300000000     0.987510000000     0.0441382  
H78      H      0.311990000000     0.670790000000     0.064090000000     0.0445792  
H79      H      0.379530000000     0.738720000000     0.024940000000     0.045926   
H80      H      0.260630000000     0.743050000000     0.947900000000     0.0450522  
H81      H      0.561020000000     0.589120000000     0.653180000000     0.0437238  
H82      H      0.538290000000     0.465690000000     0.724880000000     0.045013   
H83      H      0.575140000000     0.441880000000     0.666910000000     0.0445457  
H84      H      0.598670000000     0.565400000000     0.594950000000     0.0451176  
H85      H      0.421250000000     0.400120000000     0.844940000000     0.0451475  
H86      H      0.444770000000     0.523630000000     0.916910000000     0.0446246  
H87      H      0.481620000000     0.499810000000     0.974890000000     0.045146   
H88      H      0.458900000000     0.376390000000     0.903170000000     0.0437809  
H89      H      0.528110000000     0.685370000000     0.841260000000     0.0444052  
H90      H      0.389690000000     0.657990000000     0.771410000000     0.044999   
H91      H      0.390570000000     0.726210000000     0.805470000000     0.0461668  
H92      H      0.528840000000     0.754420000000     0.876040000000     0.0448053  
H93      H      0.248600000000     0.474190000000     0.745790000000     0.0436061  
H94      H      0.339810000000     0.487190000000     0.634520000000     0.0435842  
H95      H      0.271630000000     0.486910000000     0.589970000000     0.0436697  
H96      H      0.180670000000     0.474630000000     0.701210000000     0.0438518  
In1      In     0.433070000000     0.533540000000     0.266550000000     2.40285    
In2      In     0.140440000000     0.533610000000     0.074580000000     2.40404    
In3      In     0.443200000000     0.846660000000     0.409700000000     2.49745    
In4      In     0.879480000000     0.431900000000     0.324580000000     2.40417    
In5      In     0.586850000000     0.431980000000     0.516550000000     2.40264    
In6      In     0.576730000000     0.118860000000     0.159690000000     2.49761    
In7      In     0.433070000000     0.533530000000     0.766550000000     2.40273    
In8      In     0.140430000000     0.533610000000     0.574580000000     2.40402    
In9      In     0.443200000000     0.846650000000     0.909690000000     2.49776    
In10     In     0.879490000000     0.431910000000     0.824580000000     2.40436    
In11     In     0.586840000000     0.431970000000     0.016550000000     2.40111    
In12     In     0.576730000000     0.118860000000     0.659700000000     2.49763    
N1       N      0.561780000000     0.299650000000     0.054510000000    -0.176091   
N2       N      0.560890000000     0.220750000000     0.094180000000    -0.173469   
N3       N      0.797610000000     0.482440000000     0.392440000000    -0.177443   
N4       N      0.719590000000     0.482550000000     0.443570000000    -0.176986   
N5       N      0.772760000000     0.298810000000     0.278050000000    -0.176973   
N6       N      0.694710000000     0.220320000000     0.232670000000    -0.173435   
N7       N      0.482300000000     0.943290000000     0.313380000000    -0.173766   
N8       N      0.517030000000     0.014410000000     0.250300000000    -0.173707   
N9       N      0.502890000000     0.951110000000     0.500300000000    -0.173683   
N10      N      0.537620000000     0.022220000000     0.063380000000    -0.17384    
N11      N      0.987650000000     0.428490000000     0.404260000000    -0.176007   
N12      N      0.059070000000     0.455230000000     0.471280000000    -0.175881   
N13      N      0.032270000000     0.537010000000     0.154260000000    -0.176106   
N14      N      0.960840000000     0.510280000000     0.221270000000    -0.175854   
N15      N      0.247160000000     0.666690000000     0.528050000000    -0.17693    
N16      N      0.325210000000     0.745190000000     0.482680000000    -0.17345    
N17      N      0.544280000000     0.527700000000     0.192290000000    -0.176517   
N18      N      0.586960000000     0.500480000000     0.125800000000    -0.175952   
N19      N      0.432950000000     0.465030000000     0.375810000000    -0.175952   
N20      N      0.475640000000     0.437820000000     0.442290000000    -0.176508   
N21      N      0.458140000000     0.665860000000     0.304520000000    -0.176082   
N22      N      0.459030000000     0.744760000000     0.344190000000    -0.173405   
N23      N      0.300330000000     0.482970000000     0.193580000000    -0.177055   
N24      N      0.222310000000     0.483070000000     0.142440000000    -0.177446   
N25      N      0.561790000000     0.299660000000     0.554520000000    -0.176017   
N26      N      0.560900000000     0.220760000000     0.594190000000    -0.173503   
N27      N      0.797610000000     0.482450000000     0.892440000000    -0.177437   
N28      N      0.719590000000     0.482550000000     0.943570000000    -0.177129   
N29      N      0.772770000000     0.298820000000     0.778060000000    -0.176891   
N30      N      0.694710000000     0.220320000000     0.732680000000    -0.173525   
N31      N      0.482300000000     0.943280000000     0.813380000000    -0.173799   
N32      N      0.517030000000     0.014410000000     0.750300000000    -0.173663   
N33      N      0.502890000000     0.951100000000     0.000300000000    -0.174112   
N34      N      0.537630000000     0.022230000000     0.563380000000    -0.173828   
N35      N      0.987650000000     0.428500000000     0.904260000000    -0.176002   
N36      N      0.059080000000     0.455220000000     0.971280000000    -0.17559    
N37      N      0.032270000000     0.537020000000     0.654260000000    -0.17607    
N38      N      0.960840000000     0.510290000000     0.721280000000    -0.175865   
N39      N      0.247160000000     0.666690000000     0.028050000000    -0.177459   
N40      N      0.325210000000     0.745190000000     0.982670000000    -0.173002   
N41      N      0.544280000000     0.527690000000     0.692290000000    -0.176549   
N42      N      0.586980000000     0.500490000000     0.625800000000    -0.175924   
N43      N      0.432940000000     0.465020000000     0.875800000000    -0.175907   
N44      N      0.475630000000     0.437810000000     0.942290000000    -0.176527   
N45      N      0.458130000000     0.665860000000     0.804510000000    -0.17599    
N46      N      0.459030000000     0.744760000000     0.844180000000    -0.173395   
N47      N      0.300320000000     0.482960000000     0.693570000000    -0.177029   
N48      N      0.222300000000     0.483060000000     0.642440000000    -0.177433   
O1       O      0.388950000000     0.508640000000     0.203150000000    -0.504303   
O2       O      0.342570000000     0.496390000000     0.258960000000    -0.493807   
O3       O      0.499560000000     0.566520000000     0.216080000000    -0.49012    
O4       O      0.412820000000     0.593800000000     0.267670000000    -0.506255   
O5       O      0.415240000000     0.464710000000     0.303760000000    -0.483742   
O6       O      0.485140000000     0.608720000000     0.297330000000    -0.482099   
O7       O      0.486430000000     0.503070000000     0.249010000000    -0.501592   
O8       O      0.435380000000     0.528780000000     0.338920000000    -0.499853   
O9       O      0.155440000000     0.501500000000     0.134940000000    -0.501227   
O10      O      0.197620000000     0.503620000000     0.079080000000    -0.498178   
O11      O      0.118400000000     0.566380000000     0.130990000000    -0.491993   
O12      O      0.161430000000     0.603030000000     0.036800000000    -0.491094   
O13      O      0.133070000000     0.517350000000     0.503310000000    -0.497714   
O14      O      0.222390000000     0.600730000000     0.572190000000    -0.504817   
O15      O      0.056290000000     0.513930000000     0.092310000000    -0.494308   
O16      O      0.074650000000     0.464020000000     0.043970000000    -0.486077   
O17      O      0.418110000000     0.789090000000     0.359550000000    -0.521329   
O18      O      0.488340000000     0.806180000000     0.395130000000    -0.490797   
O19      O      0.420580000000     0.887260000000     0.360840000000    -0.488742   
O20      O      0.355120000000     0.800600000000     0.426600000000    -0.490913   
O21      O      0.509490000000     0.894940000000     0.456720000000    -0.48926    
O22      O      0.412920000000     0.794580000000     0.464660000000    -0.520561   
O23      O      0.499970000000     0.899310000000     0.362350000000    -0.525638   
O24      O      0.439500000000     0.901110000000     0.452150000000    -0.525749   
O25      O      0.864480000000     0.464000000000     0.384940000000    -0.501188   
O26      O      0.822300000000     0.461880000000     0.329080000000    -0.498251   
O27      O      0.901520000000     0.399120000000     0.380990000000    -0.49187    
O28      O      0.858490000000     0.362470000000     0.286800000000    -0.490766   
O29      O      0.945270000000     0.501480000000     0.293970000000    -0.486082   
O30      O      0.797530000000     0.364770000000     0.322190000000    -0.504913   
O31      O      0.963630000000     0.451580000000     0.342310000000    -0.494188   
O32      O      0.886830000000     0.448160000000     0.253310000000    -0.497589   
O33      O      0.630970000000     0.456880000000     0.453140000000    -0.50399    
O34      O      0.677360000000     0.469130000000     0.508960000000    -0.493518   
O35      O      0.520370000000     0.399000000000     0.466080000000    -0.490046   
O36      O      0.534790000000     0.356800000000     0.547330000000    -0.482054   
O37      O      0.604670000000     0.500810000000     0.053750000000    -0.483678   
O38      O      0.607100000000     0.371720000000     0.017670000000    -0.506385   
O39      O      0.533490000000     0.462450000000     0.499010000000    -0.501516   
O40      O      0.584540000000     0.436740000000     0.588920000000    -0.499854   
O41      O      0.601810000000     0.176430000000     0.109540000000    -0.521496   
O42      O      0.531580000000     0.159330000000     0.145120000000    -0.49081    
O43      O      0.599340000000     0.078250000000     0.110840000000    -0.488832   
O44      O      0.664800000000     0.164910000000     0.176590000000    -0.491043   
O45      O      0.510430000000     0.070580000000     0.206710000000    -0.489034   
O46      O      0.607000000000     0.170940000000     0.214650000000    -0.520542   
O47      O      0.519960000000     0.066210000000     0.112350000000    -0.525741   
O48      O      0.580420000000     0.064400000000     0.202140000000    -0.525702   
O49      O      0.388940000000     0.508630000000     0.703140000000    -0.504082   
O50      O      0.342560000000     0.496380000000     0.758950000000    -0.493762   
O51      O      0.499550000000     0.566510000000     0.716080000000    -0.490066   
O52      O      0.412810000000     0.593790000000     0.767660000000    -0.506105   
O53      O      0.415240000000     0.464700000000     0.803750000000    -0.483727   
O54      O      0.485130000000     0.608710000000     0.797330000000    -0.482017   
O55      O      0.486420000000     0.503060000000     0.749010000000    -0.50154    
O56      O      0.435370000000     0.528770000000     0.838920000000    -0.499788   
O57      O      0.155430000000     0.501510000000     0.634940000000    -0.501112   
O58      O      0.197610000000     0.503620000000     0.579080000000    -0.498011   
O59      O      0.118400000000     0.566390000000     0.631000000000    -0.491828   
O60      O      0.161420000000     0.603040000000     0.536800000000    -0.490625   
O61      O      0.133090000000     0.517340000000     0.003310000000    -0.497787   
O62      O      0.222390000000     0.600730000000     0.072190000000    -0.505011   
O63      O      0.056290000000     0.513930000000     0.592320000000    -0.494311   
O64      O      0.074650000000     0.464020000000     0.543970000000    -0.48617    
O65      O      0.418110000000     0.789090000000     0.859540000000    -0.521432   
O66      O      0.488340000000     0.806170000000     0.895120000000    -0.490687   
O67      O      0.420580000000     0.887250000000     0.860840000000    -0.488739   
O68      O      0.355120000000     0.800590000000     0.926600000000    -0.490987   
O69      O      0.509490000000     0.894930000000     0.956710000000    -0.48911    
O70      O      0.412920000000     0.794570000000     0.964650000000    -0.520394   
O71      O      0.499970000000     0.899300000000     0.862350000000    -0.525643   
O72      O      0.439500000000     0.901100000000     0.952150000000    -0.52568    
O73      O      0.864480000000     0.464010000000     0.884940000000    -0.501234   
O74      O      0.822310000000     0.461890000000     0.829090000000    -0.498314   
O75      O      0.901520000000     0.399130000000     0.881000000000    -0.491822   
O76      O      0.858500000000     0.362480000000     0.786800000000    -0.490678   
O77      O      0.945270000000     0.501490000000     0.793980000000    -0.486142   
O78      O      0.797530000000     0.364780000000     0.822200000000    -0.504707   
O79      O      0.963630000000     0.451580000000     0.842320000000    -0.494269   
O80      O      0.886830000000     0.448170000000     0.753320000000    -0.497696   
O81      O      0.630970000000     0.456870000000     0.953150000000    -0.504016   
O82      O      0.677350000000     0.469130000000     0.008960000000    -0.494326   
O83      O      0.520360000000     0.398990000000     0.966080000000    -0.489471   
O84      O      0.534780000000     0.356790000000     0.047330000000    -0.482116   
O85      O      0.604690000000     0.500810000000     0.553750000000    -0.4838     
O86      O      0.607110000000     0.371720000000     0.517660000000    -0.506131   
O87      O      0.533480000000     0.462440000000     0.999010000000    -0.500916   
O88      O      0.584520000000     0.436730000000     0.088920000000    -0.499755   
O89      O      0.601810000000     0.176430000000     0.609550000000    -0.521511   
O90      O      0.531590000000     0.159340000000     0.645120000000    -0.490932   
O91      O      0.599350000000     0.078260000000     0.610840000000    -0.488707   
O92      O      0.664800000000     0.164920000000     0.676600000000    -0.491066   
O93      O      0.510440000000     0.070580000000     0.706720000000    -0.48926    
O94      O      0.607010000000     0.170940000000     0.714660000000    -0.520685   
O95      O      0.519960000000     0.066210000000     0.612350000000    -0.52559    
O96      O      0.580430000000     0.064410000000     0.702150000000    -0.525748   


