data_structure

_audit_creation_method RASPA-1.0
_audit_creation_date 2023-5-22
_audit_author_name 'Poobodin Mano'

_cell_length_a    20.0865
_cell_length_b    27.4878
_cell_length_c    27.511
_cell_angle_alpha 90
_cell_angle_beta  90
_cell_angle_gamma 90
_cell_volume      15189.8

_symmetry_cell_setting          triclinic
_symmetry_space_group_name_Hall 'P 1'
_symmetry_space_group_name_H-M  'P 1'
_symmetry_Int_Tables_number     1

_symmetry_equiv_pos_as_xyz 'x,y,z'

loop_
_atom_site_label
_atom_site_type_symbol
_atom_site_fract_x
_atom_site_fract_y
_atom_site_fract_z
_atom_site_charge
C1       C      0.060640000000     0.271910000000     0.775950000000     0.411783   
C2       C      0.066080000000     0.397620000000     0.896120000000     0.423455   
C3       C      0.936300000000     0.393050000000     0.773880000000     0.423505   
C4       C      0.937860000000     0.273610000000     0.900550000000     0.411459   
C5       C      0.193180000000     0.523580000000     0.022560000000     0.413743   
C6       C      0.195270000000     0.647860000000     0.146500000000     0.412986   
C7       C      0.319510000000     0.527670000000     0.146960000000     0.424843   
C8       C      0.313030000000     0.646720000000     0.018180000000     0.423945   
C9       C      0.440600000000     0.774740000000     0.894110000000     0.414068   
C10      C      0.568830000000     0.898720000000     0.893210000000     0.425555   
C11      C      0.563400000000     0.772150000000     0.771910000000     0.424191   
C12      C      0.444830000000     0.900490000000     0.772870000000     0.413058   
C13      C      0.811650000000     0.145000000000     0.024820000000     0.424032   
C14      C      0.688250000000     0.142790000000     0.149790000000     0.42696    
C15      C      0.693440000000     0.021200000000     0.024290000000     0.414521   
C16      C      0.813520000000     0.021210000000     0.150610000000     0.423634   
C17      C      0.564030000000     0.273650000000     0.272720000000     0.412852   
C18      C      0.444560000000     0.399350000000     0.272150000000     0.413733   
C19      C      0.440540000000     0.276630000000     0.396880000000     0.4165     
C20      C      0.564520000000     0.395820000000     0.399250000000     0.424106   
C21      C      0.693010000000     0.522680000000     0.524000000000     0.412404   
C22      C      0.814460000000     0.520920000000     0.646570000000     0.412529   
C23      C      0.820100000000     0.647570000000     0.525770000000     0.412007   
C24      C      0.692360000000     0.647280000000     0.645370000000     0.413019   
C25      C      0.072490000000     0.772200000000     0.276740000000     0.425214   
C26      C      0.071130000000     0.897670000000     0.397500000000     0.414751   
C27      C      0.944260000000     0.894440000000     0.274330000000     0.411923   
C28      C      0.949270000000     0.775630000000     0.402600000000     0.423164   
C29      C      0.187240000000     0.148570000000     0.646730000000     0.427115   
C30      C      0.313200000000     0.153300000000     0.525630000000     0.425174   
C31      C      0.319590000000     0.030420000000     0.649510000000     0.424529   
C32      C      0.196890000000     0.026700000000     0.521500000000     0.424957   
C33      C      0.067140000000     0.962090000000     0.454840000000     0.0385915  
C34      C      0.170810000000     0.930210000000     0.430500000000     0.0139211  
C35      C      0.099480000000     0.994930000000     0.485390000000     0.0426152  
C36      C      0.203910000000     0.963690000000     0.460490000000     0.142366   
C37      C      0.817880000000     0.707130000000     0.463370000000     0.0357245  
C38      C      0.920100000000     0.685280000000     0.499250000000     0.0112023  
C39      C      0.850860000000     0.739910000000     0.433140000000     0.0409417  
C40      C      0.953690000000     0.718760000000     0.469500000000     0.13974    
C41      C      0.443840000000     0.215200000000     0.457430000000     0.0397043  
C42      C      0.340800000000     0.248720000000     0.433840000000     0.0144122  
C43      C      0.411280000000     0.184960000000     0.490450000000     0.0438344  
C44      C      0.307620000000     0.218920000000     0.467440000000     0.142103   
C45      C      0.695870000000     0.463730000000     0.460910000000     0.0356943  
C46      C      0.593380000000     0.485380000000     0.496520000000     0.0117872  
C47      C      0.663010000000     0.431220000000     0.430230000000     0.0411298  
C48      C      0.559990000000     0.452160000000     0.466450000000     0.140509   
C49      C      0.946000000000     0.957580000000     0.215450000000     0.0352817  
C50      C      0.843390000000     0.925600000000     0.241920000000     0.0110345  
C51      C      0.912430000000     0.989950000000     0.185050000000     0.0406932  
C52      C      0.809090000000     0.958540000000     0.212070000000     0.139517   
C53      C      0.662010000000     0.238920000000     0.239220000000     0.0360142  
C54      C      0.556850000000     0.209290000000     0.215450000000     0.0114313  
C55      C      0.692740000000     0.205160000000     0.208770000000     0.0423288  
C56      C      0.587290000000     0.174660000000     0.185270000000     0.142828   
C57      C      0.346710000000     0.936130000000     0.740670000000     0.0381009  
C58      C      0.451710000000     0.964360000000     0.714940000000     0.0128814  
C59      C      0.315730000000     0.969580000000     0.710050000000     0.0425376  
C60      C      0.421010000000     0.998830000000     0.684660000000     0.142518   
C61      C      0.694630000000     0.704240000000     0.710190000000     0.0370495  
C62      C      0.592110000000     0.682150000000     0.674900000000     0.0122607  
C63      C      0.661430000000     0.735010000000     0.742380000000     0.0417261  
C64      C      0.558120000000     0.712310000000     0.707710000000     0.140883   
C65      C      0.595960000000     0.983990000000     0.992870000000     0.0393313  
C66      C      0.699810000000     0.968190000000     0.956310000000     0.0136609  
C67      C      0.565010000000     0.953630000000     0.959160000000     0.0427707  
C68      C      0.668960000000     0.938350000000     0.921570000000     0.141319   
C69      C      0.097880000000     0.678440000000     0.184670000000     0.0364708  
C70      C      0.203080000000     0.708970000000     0.207140000000     0.0116932  
C71      C      0.067600000000     0.709400000000     0.218200000000     0.041064   
C72      C      0.173230000000     0.739620000000     0.241600000000     0.14157    
C73      C      0.443760000000     0.712830000000     0.954140000000     0.0378264  
C74      C      0.340390000000     0.740260000000     0.924330000000     0.0131532  
C75      C      0.411070000000     0.680100000000     0.984590000000     0.0424484  
C76      C      0.307010000000     0.706890000000     0.954310000000     0.140543   
C77      C      0.346930000000     0.430170000000     0.234650000000     0.0368737  
C78      C      0.450790000000     0.466150000000     0.217560000000     0.0119777  
C79      C      0.315860000000     0.463200000000     0.203620000000     0.0415517  
C80      C      0.419850000000     0.500150000000     0.186900000000     0.140597   
C81      C      0.158360000000     0.243740000000     0.736640000000     0.0372379  
C82      C      0.054840000000     0.207970000000     0.718040000000     0.0116611  
C83      C      0.189510000000     0.212990000000     0.703420000000     0.043856   
C84      C      0.085570000000     0.177360000000     0.683900000000     0.142227   
C85      C      0.941850000000     0.213040000000     0.962020000000     0.035288   
C86      C      0.838270000000     0.238390000000     0.930780000000     0.0113479  
C87      C      0.909500000000     0.180110000000     0.992530000000     0.0412317  
C88      C      0.805300000000     0.204930000000     0.960830000000     0.141092   
C89      C      0.911450000000     0.482660000000     0.677700000000     0.0362224  
C90      C      0.806090000000     0.461380000000     0.708760000000     0.0110732  
C91      C      0.941480000000     0.449800000000     0.709490000000     0.0413741  
C92      C      0.835700000000     0.427580000000     0.740310000000     0.14048    
C93      C      0.094560000000     0.492540000000     0.986490000000     0.0371258  
C94      C      0.198960000000     0.461510000000     0.962750000000     0.0118254  
C95      C      0.063180000000     0.461220000000     0.953840000000     0.0403216  
C96      C      0.167970000000     0.430390000000     0.929250000000     0.140139   
H1       H      0.068730000000     0.019390000000     0.506680000000     0.0589181  
H2       H      0.013190000000     0.962950000000     0.453510000000     0.0539536  
H3       H      0.200530000000     0.905680000000     0.408490000000     0.0820828  
H4       H      0.821020000000     0.760210000000     0.407270000000     0.0544374  
H5       H      0.764260000000     0.703970000000     0.459910000000     0.0530474  
H6       H      0.948750000000     0.664900000000     0.525780000000     0.0755128  
H7       H      0.441560000000     0.160030000000     0.511540000000     0.060019   
H8       H      0.497620000000     0.212730000000     0.454920000000     0.0546987  
H9       H      0.311650000000     0.274370000000     0.412720000000     0.0770073  
H10      H      0.692910000000     0.411110000000     0.404260000000     0.0520576  
H11      H      0.749520000000     0.466900000000     0.457730000000     0.0510139  
H12      H      0.564530000000     0.505500000000     0.523130000000     0.0776606  
H13      H      0.942270000000     0.014290000000     0.162950000000     0.0522277  
H14      H      0.999970000000     0.958700000000     0.215900000000     0.0525451  
H15      H      0.814550000000     0.901250000000     0.264750000000     0.0755285  
H16      H      0.746690000000     0.205470000000     0.207140000000     0.0504937  
H17      H      0.693390000000     0.263320000000     0.260080000000     0.0527747  
H18      H      0.502940000000     0.209330000000     0.218060000000     0.0741606  
H19      H      0.261740000000     0.969670000000     0.709170000000     0.0536246  
H20      H      0.315450000000     0.912350000000     0.762330000000     0.0565732  
H21      H      0.505660000000     0.963860000000     0.716840000000     0.0766059  
H22      H      0.691440000000     0.755460000000     0.768020000000     0.057254   
H23      H      0.748430000000     0.701910000000     0.712680000000     0.0530007  
H24      H      0.563100000000     0.660960000000     0.649220000000     0.0776415  
H25      H      0.511600000000     0.948780000000     0.962340000000     0.0530593  
H26      H      0.565170000000     0.001510000000     0.020120000000     0.0606533  
H27      H      0.753120000000     0.974010000000     0.953620000000     0.0744672  
H28      H      0.013720000000     0.708440000000     0.220700000000     0.0504167  
H29      H      0.066310000000     0.654690000000     0.163220000000     0.0533695  
H30      H      0.256970000000     0.708960000000     0.204340000000     0.0762312  
H31      H      0.441550000000     0.657520000000     0.008070000000     0.0578381  
H32      H      0.497730000000     0.713690000000     0.955030000000     0.0539275  
H33      H      0.311060000000     0.762900000000     0.900130000000     0.0766566  
H34      H      0.262400000000     0.460010000000     0.199070000000     0.0505985  
H35      H      0.316160000000     0.403420000000     0.252970000000     0.0548752  
H36      H      0.504140000000     0.468880000000     0.223110000000     0.0728195  
H37      H      0.243050000000     0.216270000000     0.699470000000     0.0555096  
H38      H      0.188950000000     0.269570000000     0.756370000000     0.0599647  
H39      H      0.001220000000     0.205770000000     0.722330000000     0.0752837  
H40      H      0.940090000000     0.158270000000     0.016600000000     0.0517458  
H41      H      0.995750000000     0.214800000000     0.963420000000     0.0518589  
H42      H      0.808710000000     0.260230000000     0.905990000000     0.0806353  
H43      H      0.995330000000     0.447070000000     0.708580000000     0.053554   
H44      H      0.943180000000     0.503410000000     0.653460000000     0.0551471  
H45      H      0.752230000000     0.464410000000     0.708680000000     0.0743445  
H46      H      0.009250000000     0.462270000000     0.952160000000     0.0513651  
H47      H      0.063720000000     0.516660000000     0.008090000000     0.0537615  
H48      H      0.252920000000     0.461460000000     0.964690000000     0.0750353  
In1      In     0.000200000000     0.334280000000     0.837800000000     2.43514    
In2      In     0.254880000000     0.586320000000     0.083430000000     2.44312    
In3      In     0.504540000000     0.836310000000     0.833190000000     2.44228    
In4      In     0.752670000000     0.082610000000     0.087630000000     2.44812    
In5      In     0.503910000000     0.336570000000     0.334250000000     2.43954    
In6      In     0.755670000000     0.584740000000     0.585120000000     2.42909    
In7      In     0.008860000000     0.834900000000     0.336970000000     2.43714    
In8      In     0.254110000000     0.088530000000     0.585910000000     2.45163    
N1       N      0.102860000000     0.929700000000     0.427690000000    -0.167389   
N2       N      0.167590000000     0.995470000000     0.488910000000    -0.184482   
N3       N      0.275280000000     0.965430000000     0.458250000000    -0.0257933  
N4       N      0.852600000000     0.679690000000     0.496080000000    -0.168909   
N5       N      0.918670000000     0.745270000000     0.435390000000    -0.18505    
N6       N      0.023510000000     0.726270000000     0.477830000000    -0.0257082  
N7       N      0.408500000000     0.246770000000     0.429060000000    -0.167845   
N8       N      0.343320000000     0.186010000000     0.494970000000    -0.183577   
N9       N      0.237420000000     0.226200000000     0.474200000000    -0.0253541  
N10      N      0.660920000000     0.490910000000     0.493710000000    -0.168567   
N11      N      0.595180000000     0.425920000000     0.432230000000    -0.185331   
N12      N      0.490200000000     0.444430000000     0.474740000000    -0.0257146  
N13      N      0.911400000000     0.925490000000     0.243730000000    -0.168933   
N14      N      0.844240000000     0.990240000000     0.182770000000    -0.185534   
N15      N      0.737800000000     0.959980000000     0.215520000000    -0.0256739  
N16      N      0.594210000000     0.240990000000     0.242340000000    -0.168688   
N17      N      0.655780000000     0.173500000000     0.181260000000    -0.184998   
N18      N      0.545500000000     0.139440000000     0.161740000000    -0.0256965  
N19      N      0.414540000000     0.933360000000     0.742760000000    -0.167317   
N20      N      0.352440000000     0.000380000000     0.681420000000    -0.184738   
N21      N      0.462690000000     0.033360000000     0.660040000000    -0.0252391  
N22      N      0.659920000000     0.678030000000     0.676480000000    -0.168571   
N23      N      0.593470000000     0.739630000000     0.740990000000    -0.184867   
N24      N      0.486670000000     0.711410000000     0.707120000000    -0.0257488  
N25      N      0.663250000000     0.990980000000     0.991500000000    -0.166825   
N26      N      0.601180000000     0.930270000000     0.923910000000    -0.185307   
N27      N      0.709190000000     0.919360000000     0.882840000000    -0.0254323  
N28      N      0.165450000000     0.678500000000     0.179080000000    -0.168133   
N29      N      0.104780000000     0.740470000000     0.246200000000    -0.185613   
N30      N      0.215980000000     0.767180000000     0.273080000000    -0.0259126  
N31      N      0.408360000000     0.742950000000     0.924290000000    -0.168353   
N32      N      0.342910000000     0.677480000000     0.985420000000    -0.184438   
N33      N      0.236110000000     0.702610000000     0.949220000000    -0.025495   
N34      N      0.414280000000     0.431570000000     0.241350000000    -0.168532   
N35      N      0.352000000000     0.497730000000     0.179170000000    -0.185316   
N36      N      0.460040000000     0.538360000000     0.166790000000    -0.0253603  
N37      N      0.091200000000     0.241100000000     0.743910000000    -0.167432   
N38      N      0.153680000000     0.179450000000     0.677400000000    -0.184835   
N39      N      0.043800000000     0.146680000000     0.654700000000    -0.0260522  
N40      N      0.906150000000     0.242070000000     0.931270000000    -0.168062   
N41      N      0.841430000000     0.176310000000     0.992540000000    -0.185511   
N42      N      0.734660000000     0.199510000000     0.954980000000    -0.0256568  
N43      N      0.843940000000     0.488590000000     0.677670000000    -0.168817   
N44      N      0.904120000000     0.422800000000     0.741340000000    -0.185054   
N45      N      0.792780000000     0.396900000000     0.768630000000    -0.0256162  
N46      N      0.162280000000     0.492460000000     0.990970000000    -0.168403   
N47      N      0.099410000000     0.429660000000     0.925720000000    -0.185723   
N48      N      0.209660000000     0.402260000000     0.897510000000    -0.0254761  
O1       O      0.000410000000     0.277920000000     0.899060000000    -0.498036   
O2       O      0.906970000000     0.300190000000     0.870690000000    -0.476599   
O3       O      0.094370000000     0.363360000000     0.873750000000    -0.469605   
O4       O      0.092020000000     0.303830000000     0.799720000000    -0.476031   
O5       O      0.907050000000     0.371320000000     0.808150000000    -0.465295   
O6       O      0.998640000000     0.271270000000     0.783640000000    -0.493556   
O7       O      0.003820000000     0.399190000000     0.889870000000    -0.50137    
O8       O      0.998440000000     0.386000000000     0.772740000000    -0.497778   
O9       O      0.251170000000     0.646230000000     0.026060000000    -0.483336   
O10      O      0.345630000000     0.617230000000     0.044160000000    -0.480385   
O11      O      0.162930000000     0.618100000000     0.120650000000    -0.483147   
O12      O      0.161680000000     0.553420000000     0.048830000000    -0.482828   
O13      O      0.349220000000     0.556630000000     0.118760000000    -0.4671     
O14      O      0.255650000000     0.525210000000     0.027370000000    -0.49843    
O15      O      0.257530000000     0.646680000000     0.140200000000    -0.496116   
O16      O      0.256930000000     0.527660000000     0.142180000000    -0.504911   
O17      O      0.507340000000     0.896310000000     0.775830000000    -0.492669   
O18      O      0.412540000000     0.872070000000     0.800200000000    -0.48004    
O19      O      0.506390000000     0.893130000000     0.893720000000    -0.503914   
O20      O      0.503240000000     0.777880000000     0.892210000000    -0.499112   
O21      O      0.502360000000     0.782660000000     0.769950000000    -0.48292    
O22      O      0.410200000000     0.802970000000     0.865510000000    -0.479895   
O23      O      0.598580000000     0.871970000000     0.862930000000    -0.468651   
O24      O      0.595050000000     0.795030000000     0.804350000000    -0.481427   
O25      O      0.844870000000     0.052980000000     0.126530000000    -0.48887    
O26      O      0.751970000000     0.019950000000     0.141760000000    -0.483989   
O27      O      0.750920000000     0.139010000000     0.148610000000    -0.503247   
O28      O      0.749650000000     0.143840000000     0.032000000000    -0.48461    
O29      O      0.661370000000     0.044600000000     0.056140000000    -0.471442   
O30      O      0.844280000000     0.115300000000     0.050590000000    -0.488114   
O31      O      0.658580000000     0.116890000000     0.118760000000    -0.463942   
O32      O      0.755540000000     0.028470000000     0.024770000000    -0.496956   
O33      O      0.596550000000     0.368520000000     0.370590000000    -0.48588    
O34      O      0.502200000000     0.393850000000     0.393940000000    -0.484192   
O35      O      0.506610000000     0.399160000000     0.279590000000    -0.499608   
O36      O      0.501600000000     0.276390000000     0.277230000000    -0.500768   
O37      O      0.410120000000     0.306930000000     0.370450000000    -0.478569   
O38      O      0.596270000000     0.303030000000     0.299040000000    -0.485873   
O39      O      0.412640000000     0.367680000000     0.295850000000    -0.482808   
O40      O      0.502980000000     0.276410000000     0.391470000000    -0.498288   
O41      O      0.754650000000     0.641060000000     0.646330000000    -0.498082   
O42      O      0.662310000000     0.622230000000     0.613790000000    -0.479945   
O43      O      0.752350000000     0.527780000000     0.645440000000    -0.497761   
O44      O      0.662570000000     0.548430000000     0.554810000000    -0.481003   
O45      O      0.757760000000     0.641660000000     0.524630000000    -0.499148   
O46      O      0.755420000000     0.528400000000     0.523760000000    -0.497983   
O47      O      0.847060000000     0.546300000000     0.616600000000    -0.482559   
O48      O      0.849910000000     0.621590000000     0.556750000000    -0.483185   
O49      O      0.011590000000     0.778130000000     0.397510000000    -0.479157   
O50      O      0.917060000000     0.802520000000     0.373700000000    -0.485458   
O51      O      0.102040000000     0.867120000000     0.371720000000    -0.471733   
O52      O      0.101770000000     0.805690000000     0.299590000000    -0.467182   
O53      O      0.914380000000     0.864730000000     0.301690000000    -0.484062   
O54      O      0.010290000000     0.771070000000     0.283510000000    -0.502139   
O55      O      0.008600000000     0.896480000000     0.392820000000    -0.497536   
O56      O      0.006880000000     0.893770000000     0.278210000000    -0.498542   
O57      O      0.164220000000     0.057970000000     0.545210000000    -0.480171   
O58      O      0.258190000000     0.026090000000     0.531320000000    -0.48313    
O59      O      0.251130000000     0.146460000000     0.526730000000    -0.480283   
O60      O      0.248820000000     0.152690000000     0.638290000000    -0.499317   
O61      O      0.256880000000     0.033860000000     0.648380000000    -0.501322   
O62      O      0.160020000000     0.113220000000     0.625260000000    -0.467056   
O63      O      0.345660000000     0.126420000000     0.554400000000    -0.475869   
O64      O      0.348850000000     0.055770000000     0.617820000000    -0.465219   
O65      O      0.304550000000     0.004680000000     0.442670000000    -0.0733433  
O66      O      0.309460000000     0.925340000000     0.461330000000    -0.0745928  
O67      O      0.062970000000     0.688990000000     0.482230000000    -0.0794166  
O68      O      0.044650000000     0.768960000000     0.491260000000    -0.0748659  
O69      O      0.198510000000     0.229600000000     0.436540000000    -0.0817358  
O70      O      0.215090000000     0.239630000000     0.516530000000    -0.0736253  
O71      O      0.450570000000     0.481580000000     0.479410000000    -0.0795294  
O72      O      0.469250000000     0.401590000000     0.487860000000    -0.0763676  
O73      O      0.708710000000     0.999180000000     0.231390000000    -0.0736954  
O74      O      0.703870000000     0.919720000000     0.213240000000    -0.0805715  
O75      O      0.492590000000     0.153710000000     0.138470000000    -0.0793243  
O76      O      0.552050000000     0.093560000000     0.172350000000    -0.0658536  
O77      O      0.515100000000     0.018390000000     0.636610000000    -0.0764883  
O78      O      0.456690000000     0.079490000000     0.669750000000    -0.0709255  
O79      O      0.454540000000     0.695290000000     0.744910000000    -0.0754417  
O80      O      0.455070000000     0.716190000000     0.666110000000    -0.0783166  
O81      O      0.765460000000     0.898140000000     0.892800000000    -0.0818006  
O82      O      0.697160000000     0.932610000000     0.838290000000    -0.0705046  
O83      O      0.264800000000     0.792270000000     0.254710000000    -0.077322   
O84      O      0.215240000000     0.758770000000     0.319630000000    -0.0647137  
O85      O      0.210480000000     0.661620000000     0.934730000000    -0.0771999  
O86      O      0.199360000000     0.741580000000     0.948680000000    -0.0833797  
O87      O      0.516420000000     0.527830000000     0.146020000000    -0.0827575  
O88      O      0.447770000000     0.583340000000     0.178520000000    -0.0725791  
O89      O      0.041100000000     0.153530000000     0.607940000000    -0.0676553  
O90      O      0.998450000000     0.119980000000     0.675390000000    -0.080151   
O91      O      0.710600000000     0.158160000000     0.940070000000    -0.074023   
O92      O      0.696760000000     0.237880000000     0.954140000000    -0.0780009  
O93      O      0.793680000000     0.350080000000     0.761690000000    -0.0695501  
O94      O      0.743710000000     0.416010000000     0.792900000000    -0.0792126  
O95      O      0.259130000000     0.377530000000     0.915430000000    -0.0807919  
O96      O      0.207250000000     0.409760000000     0.850830000000    -0.071493   


