data_structure

_audit_creation_method RASPA-1.0
_audit_creation_date 2023-5-22
_audit_author_name 'Poobodin Mano'

_cell_length_a    23.1852
_cell_length_b    25.4572
_cell_length_c    27.0014
_cell_angle_alpha 90
_cell_angle_beta  90
_cell_angle_gamma 90
_cell_volume      15937

_symmetry_cell_setting          triclinic
_symmetry_space_group_name_Hall 'P 1'
_symmetry_space_group_name_H-M  'P 1'
_symmetry_Int_Tables_number     1

_symmetry_equiv_pos_as_xyz 'x,y,z'

loop_
_atom_site_label
_atom_site_type_symbol
_atom_site_fract_x
_atom_site_fract_y
_atom_site_fract_z
_atom_site_charge
C1       C      0.982350000000     0.435230000000     0.907990000000     0.408476   
C2       C      0.863030000000     0.435110000000     0.786560000000     0.409337   
C3       C      0.984510000000     0.309760000000     0.783850000000     0.406559   
C4       C      0.863310000000     0.305800000000     0.908450000000     0.42579    
C5       C      0.235760000000     0.684060000000     0.029470000000     0.427386   
C6       C      0.108310000000     0.563230000000     0.033160000000     0.426155   
C7       C      0.238890000000     0.564650000000     0.153760000000     0.413375   
C8       C      0.108140000000     0.687290000000     0.151750000000     0.412625   
C9       C      0.364540000000     0.810120000000     0.904630000000     0.409323   
C10      C      0.484180000000     0.940090000000     0.908900000000     0.412327   
C11      C      0.488890000000     0.814180000000     0.785590000000     0.423159   
C12      C      0.364110000000     0.937420000000     0.783310000000     0.405538   
C13      C      0.608290000000     0.066830000000     0.036600000000     0.422662   
C14      C      0.732580000000     0.065560000000     0.165310000000     0.423026   
C15      C      0.735140000000     0.181420000000     0.035200000000     0.409334   
C16      C      0.612160000000     0.187230000000     0.163570000000     0.409182   
C17      C      0.362960000000     0.440920000000     0.284070000000     0.424406   
C18      C      0.487370000000     0.316530000000     0.288460000000     0.426216   
C19      C      0.486910000000     0.439040000000     0.408700000000     0.407514   
C20      C      0.357500000000     0.322290000000     0.412050000000     0.415162   
C21      C      0.737740000000     0.564650000000     0.662350000000     0.423613   
C22      C      0.615860000000     0.686330000000     0.661020000000     0.408835   
C23      C      0.737420000000     0.683390000000     0.533170000000     0.409793   
C24      C      0.616500000000     0.564230000000     0.533710000000     0.423585   
C25      C      0.990370000000     0.928210000000     0.411170000000     0.414298   
C26      C      0.984710000000     0.813770000000     0.280100000000     0.423651   
C27      C      0.864420000000     0.810130000000     0.407610000000     0.422945   
C28      C      0.859720000000     0.937030000000     0.289110000000     0.413432   
C29      C      0.112540000000     0.188940000000     0.653900000000     0.420836   
C30      C      0.117790000000     0.053610000000     0.537390000000     0.4238     
C31      C      0.231000000000     0.195100000000     0.537430000000     0.424432   
C32      C      0.236420000000     0.059150000000     0.653850000000     0.421004   
C33      C      0.997210000000     0.982370000000     0.482390000000     0.0272445  
C34      C      0.081100000000     0.962080000000     0.436900000000    -0.0282931  
C35      C      0.029750000000     0.013530000000     0.514370000000     0.0406251  
C36      C      0.113970000000     0.993630000000     0.468710000000     0.205897   
C37      C      0.742750000000     0.752670000000     0.474400000000     0.027845   
C38      C      0.827090000000     0.706890000000     0.497130000000    -0.0284657  
C39      C      0.775160000000     0.784580000000     0.442870000000     0.0404125  
C40      C      0.859900000000     0.739060000000     0.465970000000     0.206782   
C41      C      0.350990000000     0.267660000000     0.482970000000     0.0275792  
C42      C      0.267090000000     0.287190000000     0.437180000000    -0.028509   
C43      C      0.318690000000     0.236030000000     0.514720000000     0.0401335  
C44      C      0.234470000000     0.255180000000     0.468790000000     0.205917   
C45      C      0.494050000000     0.508700000000     0.466750000000     0.0278582  
C46      C      0.577740000000     0.462600000000     0.442840000000    -0.0292277  
C47      C      0.527090000000     0.540300000000     0.497980000000     0.0400633  
C48      C      0.611070000000     0.493850000000     0.474520000000     0.205608   
C49      C      0.781840000000     0.949960000000     0.233340000000     0.0275197  
C50      C      0.841050000000     0.021510000000     0.255460000000    -0.0284205  
C51      C      0.749800000000     0.982750000000     0.202380000000     0.0398652  
C52      C      0.809190000000     0.054560000000     0.224330000000     0.205283   
C53      C      0.536630000000     0.199980000000     0.221800000000     0.026917   
C54      C      0.596710000000     0.270970000000     0.199820000000    -0.0299613  
C55      C      0.505560000000     0.232850000000     0.253440000000     0.0401274  
C56      C      0.565650000000     0.304150000000     0.231390000000     0.205899   
C57      C      0.276940000000     0.980650000000     0.761620000000     0.0262493  
C58      C      0.356550000000     0.983930000000     0.707380000000    -0.0309325  
C59      C      0.244830000000     0.010950000000     0.728520000000     0.0394964  
C60      C      0.324740000000     0.014760000000     0.674240000000     0.20535    
C61      C      0.534110000000     0.700810000000     0.712270000000     0.0259364  
C62      C      0.604330000000     0.767170000000     0.703580000000    -0.0305314  
C63      C      0.502230000000     0.733390000000     0.743580000000     0.0390821  
C64      C      0.572810000000     0.799860000000     0.735250000000     0.205741   
C65      C      0.570750000000     0.961260000000     0.951080000000     0.026993   
C66      C      0.488860000000     0.015080000000     0.961290000000    -0.0298601  
C67      C      0.601870000000     0.993590000000     0.983030000000     0.0392241  
C68      C      0.519870000000     0.047630000000     0.993640000000     0.204319   
C69      C      0.040150000000     0.697580000000     0.216720000000     0.0281373  
C70      C      0.082060000000     0.772410000000     0.179950000000    -0.0294861  
C71      C      0.009200000000     0.729780000000     0.248980000000     0.0404159  
C72      C      0.051540000000     0.804940000000     0.212560000000     0.205773   
C73      C      0.357600000000     0.754470000000     0.975040000000     0.0260551  
C74      C      0.275690000000     0.769450000000     0.925270000000    -0.0300421  
C75      C      0.324810000000     0.722530000000     0.006260000000     0.0401581  
C76      C      0.242370000000     0.738220000000     0.956880000000     0.206737   
C77      C      0.268760000000     0.480730000000     0.182330000000     0.0269616  
C78      C      0.304090000000     0.557180000000     0.221170000000    -0.0289368  
C79      C      0.299980000000     0.449760000000     0.215520000000     0.0405317  
C80      C      0.335840000000     0.526350000000     0.254330000000     0.205224   
C81      C      0.072270000000     0.268060000000     0.761320000000     0.0270528  
C82      C      0.991690000000     0.262460000000     0.708330000000    -0.030574   
C83      C      0.104460000000     0.237990000000     0.728100000000     0.0397547  
C84      C      0.023580000000     0.231860000000     0.675060000000     0.205935   
C85      C      0.742750000000     0.253260000000     0.979760000000     0.0267052  
C86      C      0.823930000000     0.199750000000     0.994610000000    -0.0294465  
C87      C      0.775450000000     0.284640000000     0.948140000000     0.0400828  
C88      C      0.857010000000     0.231080000000     0.962720000000     0.205418   
C89      C      0.780610000000     0.451610000000     0.736890000000     0.0270628  
C90      C      0.852340000000     0.516720000000     0.744880000000    -0.0298157  
C91      C      0.749170000000     0.484570000000     0.705710000000     0.0393309  
C92      C      0.820740000000     0.550160000000     0.713900000000     0.204596   
C93      C      0.070550000000     0.475240000000     0.931510000000     0.0269896  
C94      C      0.986320000000     0.491900000000     0.977860000000    -0.030254   
C95      C      0.102070000000     0.507320000000     0.963410000000     0.0419472  
C96      C      0.017610000000     0.524810000000     0.009620000000     0.206375   
H1       H      0.007280000000     0.033150000000     0.544350000000     0.0463082  
H2       H      0.951240000000     0.979100000000     0.489180000000     0.0472961  
H3       H      0.102930000000     0.942300000000     0.406640000000     0.0722231  
H4       H      0.189910000000     0.969040000000     0.479790000000     0.157443   
H5       H      0.752550000000     0.814690000000     0.422130000000     0.0456748  
H6       H      0.696660000000     0.759500000000     0.476750000000     0.0484779  
H7       H      0.849240000000     0.676570000000     0.518000000000     0.0762505  
H8       H      0.935390000000     0.752400000000     0.489550000000     0.157628   
H9       H      0.341260000000     0.216560000000     0.544740000000     0.0457837  
H10      H      0.396870000000     0.271400000000     0.489960000000     0.0469807  
H11      H      0.245180000000     0.306840000000     0.406900000000     0.0727699  
H12      H      0.158140000000     0.278920000000     0.479580000000     0.157963   
H13      H      0.504930000000     0.570510000000     0.518950000000     0.0464294  
H14      H      0.448000000000     0.515900000000     0.464910000000     0.0507181  
H15      H      0.599340000000     0.432310000000     0.421510000000     0.0718072  
H16      H      0.674460000000     0.458240000000     0.503250000000     0.159405   
H17      H      0.714180000000     0.965430000000     0.182090000000     0.0456563  
H18      H      0.769570000000     0.908930000000     0.235750000000     0.0482155  
H19      H      0.876870000000     0.038310000000     0.275890000000     0.0733142  
H20      H      0.802240000000     0.124410000000     0.247620000000     0.155732   
H21      H      0.469790000000     0.215860000000     0.273770000000     0.0458475  
H22      H      0.523730000000     0.159120000000     0.219130000000     0.0492732  
H23      H      0.632530000000     0.287550000000     0.179230000000     0.0728875  
H24      H      0.610850000000     0.356960000000     0.261890000000     0.160091   
H25      H      0.200810000000     0.020580000000     0.738640000000     0.04462    
H26      H      0.256400000000     0.968080000000     0.795700000000     0.0490859  
H27      H      0.400590000000     0.973890000000     0.697620000000     0.0733181  
H28      H      0.369740000000     0.064300000000     0.638990000000     0.160289   
H29      H      0.462060000000     0.718220000000     0.758390000000     0.0441348  
H30      H      0.517300000000     0.661990000000     0.704210000000     0.0475361  
H31      H      0.644490000000     0.782000000000     0.688420000000     0.0714993  
H32      H      0.619020000000     0.844430000000     0.774940000000     0.157745   
H33      H      0.646430000000     0.983250000000     0.990420000000     0.0455386  
H34      H      0.592650000000     0.927620000000     0.935130000000     0.0477875  
H35      H      0.444210000000     0.024820000000     0.953510000000     0.0701645  
H36      H      0.498970000000     0.119410000000     0.990260000000     0.15602    
H37      H      0.980910000000     0.710930000000     0.275570000000     0.0488992  
H38      H      0.034500000000     0.655410000000     0.219800000000     0.0509376  
H39      H      0.110470000000     0.790740000000     0.153100000000     0.0710515  
H40      H      0.091580000000     0.866850000000     0.230610000000     0.161246   
H41      H      0.346290000000     0.704790000000     0.037790000000     0.044417   
H42      H      0.402870000000     0.760040000000     0.983680000000     0.0467453  
H43      H      0.254670000000     0.787260000000     0.893530000000     0.0730044  
H44      H      0.164720000000     0.760440000000     0.962550000000     0.160033   
H45      H      0.296820000000     0.407440000000     0.211760000000     0.0460296  
H46      H      0.242850000000     0.461090000000     0.154490000000     0.0485976  
H47      H      0.306710000000     0.599580000000     0.224670000000     0.0715785  
H48      H      0.406790000000     0.556660000000     0.274020000000     0.158284   
H49      H      0.148900000000     0.229390000000     0.737670000000     0.0444113  
H50      H      0.093190000000     0.281480000000     0.794940000000     0.0495408  
H51      H      0.947230000000     0.271470000000     0.699120000000     0.0719033  
H52      H      0.979120000000     0.180970000000     0.641040000000     0.160581   
H53      H      0.754120000000     0.317730000000     0.930680000000     0.0454794  
H54      H      0.697860000000     0.263600000000     0.985450000000     0.0482517  
H55      H      0.844600000000     0.166510000000     0.012430000000     0.0738033  
H56      H      0.935370000000     0.237200000000     0.981530000000     0.158533   
H57      H      0.708690000000     0.469890000000     0.691090000000     0.043789   
H58      H      0.763070000000     0.413070000000     0.745040000000     0.0486904  
H59      H      0.893000000000     0.530800000000     0.759690000000     0.0709529  
H60      H      0.827520000000     0.622280000000     0.729940000000     0.155468   
H61      H      0.147780000000     0.512020000000     0.956070000000     0.0463959  
H62      H      0.093220000000     0.456540000000     0.901120000000     0.0497345  
H63      H      0.940610000000     0.486610000000     0.984820000000     0.0708681  
H64      H      0.974810000000     0.582280000000     0.034680000000     0.158589   
In1      In     0.923050000000     0.370490000000     0.847110000000     2.40859    
In2      In     0.173190000000     0.624680000000     0.092950000000     2.41747    
In3      In     0.425500000000     0.876210000000     0.846260000000     2.4069     
In4      In     0.671830000000     0.125050000000     0.100430000000     2.41917    
In5      In     0.422490000000     0.378800000000     0.347880000000     2.41545    
In6      In     0.676560000000     0.624640000000     0.598080000000     2.42062    
In7      In     0.925190000000     0.873060000000     0.346220000000     2.41838    
In8      In     0.174580000000     0.124200000000     0.594790000000     2.4172     
N1       N      0.022840000000     0.957210000000     0.443450000000    -0.164688   
N2       N      0.087800000000     0.020060000000     0.507080000000    -0.203223   
N3       N      0.768860000000     0.714050000000     0.501520000000    -0.163013   
N4       N      0.833640000000     0.778000000000     0.438690000000    -0.202539   
N5       N      0.325240000000     0.292710000000     0.444020000000    -0.165157   
N6       N      0.260760000000     0.228940000000     0.507220000000    -0.203365   
N7       N      0.519450000000     0.469950000000     0.439310000000    -0.16272    
N8       N      0.585450000000     0.532910000000     0.502070000000    -0.203223   
N9       N      0.827550000000     0.969370000000     0.259550000000    -0.164575   
N10      N      0.763750000000     0.034800000000     0.197340000000    -0.20338    
N11      N      0.581970000000     0.219190000000     0.195000000000    -0.163942   
N12      N      0.519600000000     0.284940000000     0.257970000000    -0.204154   
N13      N      0.332700000000     0.967310000000     0.750970000000    -0.163564   
N14      N      0.268620000000     0.028250000000     0.685000000000    -0.20341    
N15      N      0.584920000000     0.717900000000     0.692240000000    -0.164734   
N16      N      0.521320000000     0.782880000000     0.754990000000    -0.20337    
N17      N      0.514380000000     0.972050000000     0.940310000000    -0.165437   
N18      N      0.576550000000     0.036510000000     0.004610000000    -0.203164   
N19      N      0.076700000000     0.718970000000     0.182510000000    -0.16461    
N20      N      0.015040000000     0.783330000000     0.247220000000    -0.20335    
N21      N      0.332870000000     0.777950000000     0.934760000000    -0.163862   
N22      N      0.267210000000     0.714700000000     0.997540000000    -0.203978   
N23      N      0.270640000000     0.534310000000     0.185470000000    -0.165064   
N24      N      0.333240000000     0.472390000000     0.251640000000    -0.203504   
N25      N      0.015990000000     0.280110000000     0.751370000000    -0.163298   
N26      N      0.080230000000     0.219640000000     0.685150000000    -0.20315    
N27      N      0.767140000000     0.211160000000     0.003180000000    -0.163658   
N28      N      0.832480000000     0.273760000000     0.939570000000    -0.204513   
N29      N      0.832180000000     0.467680000000     0.756210000000    -0.164115   
N30      N      0.769180000000     0.533650000000     0.693950000000    -0.204      
N31      N      0.012870000000     0.467400000000     0.938960000000    -0.163463   
N32      N      0.075850000000     0.532090000000     0.002440000000    -0.202837   
O1       O      0.841860000000     0.346320000000     0.888900000000    -0.498359   
O2       O      0.915320000000     0.297760000000     0.896960000000    -0.491806   
O3       O      0.911190000000     0.447740000000     0.804920000000    -0.497588   
O4       O      0.004840000000     0.413190000000     0.870810000000    -0.486757   
O5       O      0.004890000000     0.326700000000     0.824140000000    -0.482247   
O6       O      0.929530000000     0.424930000000     0.914320000000    -0.497321   
O7       O      0.845570000000     0.389890000000     0.798530000000    -0.486373   
O8       O      0.932840000000     0.322820000000     0.775820000000    -0.496131   
O9       O      0.142420000000     0.705160000000     0.119610000000    -0.499314   
O10      O      0.106140000000     0.637790000000     0.153830000000    -0.49092    
O11      O      0.162220000000     0.568350000000     0.028130000000    -0.496191   
O12      O      0.181950000000     0.677760000000     0.025550000000    -0.488364   
O13      O      0.238090000000     0.614160000000     0.155980000000    -0.496368   
O14      O      0.258160000000     0.660160000000     0.065740000000    -0.498744   
O15      O      0.087200000000     0.589180000000     0.068690000000    -0.482993   
O16      O      0.207170000000     0.545450000000     0.120400000000    -0.497792   
O17      O      0.344230000000     0.921450000000     0.824130000000    -0.483612   
O18      O      0.415230000000     0.923130000000     0.774590000000    -0.492941   
O19      O      0.432680000000     0.948950000000     0.896230000000    -0.499773   
O20      O      0.416620000000     0.821620000000     0.913190000000    -0.498422   
O21      O      0.441240000000     0.799650000000     0.803760000000    -0.501012   
O22      O      0.343730000000     0.831430000000     0.866370000000    -0.487706   
O23      O      0.505630000000     0.899160000000     0.890150000000    -0.494664   
O24      O      0.503920000000     0.859960000000     0.797970000000    -0.477775   
O25      O      0.599360000000     0.139570000000     0.156510000000    -0.491976   
O26      O      0.654940000000     0.203190000000     0.138920000000    -0.495054   
O27      O      0.689620000000     0.048430000000     0.141560000000    -0.499397   
O28      O      0.660900000000     0.058010000000     0.045420000000    -0.501763   
O29      O      0.682480000000     0.190370000000     0.043580000000    -0.497712   
O30      O      0.587650000000     0.105380000000     0.060100000000    -0.482756   
O31      O      0.744730000000     0.112950000000     0.156330000000    -0.485041   
O32      O      0.755970000000     0.143460000000     0.059480000000    -0.487453   
O33      O      0.411620000000     0.325940000000     0.415440000000    -0.502537   
O34      O      0.335870000000     0.347390000000     0.376240000000    -0.494571   
O35      O      0.446170000000     0.299250000000     0.314330000000    -0.503165   
O36      O      0.360830000000     0.391380000000     0.282560000000    -0.49712    
O37      O      0.432800000000     0.443920000000     0.404990000000    -0.487205   
O38      O      0.394740000000     0.458780000000     0.317980000000    -0.483407   
O39      O      0.495760000000     0.365310000000     0.292780000000    -0.484942   
O40      O      0.508500000000     0.403430000000     0.381790000000    -0.488318   
O41      O      0.593580000000     0.600470000000     0.558890000000    -0.496837   
O42      O      0.670030000000     0.558970000000     0.540750000000    -0.487942   
O43      O      0.662370000000     0.700840000000     0.640980000000    -0.498981   
O44      O      0.753280000000     0.610090000000     0.649410000000    -0.483608   
O45      O      0.683860000000     0.689440000000     0.539790000000    -0.494785   
O46      O      0.690920000000     0.549730000000     0.643080000000    -0.504303   
O47      O      0.600060000000     0.640490000000     0.649520000000    -0.493893   
O48      O      0.759870000000     0.647320000000     0.558870000000    -0.485839   
O49      O      0.901640000000     0.953400000000     0.314600000000    -0.498354   
O50      O      0.850470000000     0.888290000000     0.292680000000    -0.493522   
O51      O      0.950610000000     0.794520000000     0.311640000000    -0.494614   
O52      O      0.011940000000     0.903050000000     0.375360000000    -0.493495   
O53      O      0.840980000000     0.845620000000     0.381670000000    -0.493697   
O54      O      0.936150000000     0.925280000000     0.414200000000    -0.501646   
O55      O      0.988700000000     0.863150000000     0.281920000000    -0.485135   
O56      O      0.918450000000     0.806840000000     0.402390000000    -0.484701   
O57      O      0.184900000000     0.072000000000     0.663150000000    -0.500976   
O58      O      0.256000000000     0.078360000000     0.614190000000    -0.480344   
O59      O      0.094620000000     0.077060000000     0.573430000000    -0.494878   
O60      O      0.164500000000     0.177150000000     0.662640000000    -0.500976   
O61      O      0.254270000000     0.171810000000     0.573510000000    -0.496232   
O62      O      0.092620000000     0.168870000000     0.614750000000    -0.479449   
O63      O      0.170110000000     0.065270000000     0.530780000000    -0.484664   
O64      O      0.178810000000     0.183080000000     0.530720000000    -0.485218   
O65      O      0.172170000000     0.997730000000     0.460140000000    -0.270496   
O66      O      0.918240000000     0.730190000000     0.463200000000    -0.271059   
O67      O      0.176370000000     0.250470000000     0.459960000000    -0.270236   
O68      O      0.669400000000     0.484740000000     0.476680000000    -0.273744   
O69      O      0.824850000000     0.106500000000     0.221390000000    -0.270867   
O70      O      0.582200000000     0.355840000000     0.234630000000    -0.274286   
O71      O      0.350890000000     0.030360000000     0.631030000000    -0.272864   
O72      O      0.594350000000     0.848980000000     0.745240000000    -0.272177   
O73      O      0.492190000000     0.090210000000     0.013870000000    -0.272458   
O74      O      0.058710000000     0.858310000000     0.208510000000    -0.274413   
O75      O      0.185110000000     0.731270000000     0.945620000000    -0.275409   
O76      O      0.368460000000     0.551440000000     0.289590000000    -0.272224   
O77      O      0.996980000000     0.215190000000     0.632430000000    -0.27314    
O78      O      0.913840000000     0.218010000000     0.955450000000    -0.274861   
O79      O      0.843010000000     0.598960000000     0.703670000000    -0.271339   
O80      O      0.988890000000     0.548380000000     0.048150000000    -0.273433   


