data_structure

_audit_creation_method RASPA-1.0
_audit_creation_date 2023-5-22
_audit_author_name 'Poobodin Mano'

_cell_length_a    22.0394
_cell_length_b    28.5267
_cell_length_c    24.8715
_cell_angle_alpha 90
_cell_angle_beta  90
_cell_angle_gamma 90
_cell_volume      15637

_symmetry_cell_setting          triclinic
_symmetry_space_group_name_Hall 'P 1'
_symmetry_space_group_name_H-M  'P 1'
_symmetry_Int_Tables_number     1

_symmetry_equiv_pos_as_xyz 'x,y,z'

loop_
_atom_site_label
_atom_site_type_symbol
_atom_site_fract_x
_atom_site_fract_y
_atom_site_fract_z
_atom_site_charge
Br1      Br     0.995820000000     0.981320000000     0.619650000000    -0.188784   
Br2      Br     0.744680000000     0.733080000000     0.400170000000    -0.186904   
Br3      Br     0.242720000000     0.233840000000     0.400230000000    -0.180381   
Br4      Br     0.427260000000     0.414720000000     0.547000000000    -0.185524   
Br5      Br     0.907170000000     0.984190000000     0.153160000000    -0.171253   
Br6      Br     0.434910000000     0.215910000000     0.210640000000    -0.178088   
Br7      Br     0.465510000000     0.916540000000     0.711950000000    -0.184911   
Br8      Br     0.427650000000     0.713360000000     0.720370000000    -0.181874   
Br9      Br     0.723160000000     0.967320000000     0.964790000000    -0.182791   
Br10     Br     0.215900000000     0.664440000000     0.305710000000    -0.184852   
Br11     Br     0.408390000000     0.648500000000     0.111430000000    -0.175709   
Br12     Br     0.469420000000     0.419050000000     0.216690000000    -0.177853   
Br13     Br     0.155200000000     0.239160000000     0.863010000000    -0.180948   
Br14     Br     0.905440000000     0.155520000000     0.117650000000    -0.173563   
Br15     Br     0.682890000000     0.470630000000     0.804060000000    -0.187569   
Br16     Br     0.213190000000     0.481430000000     0.956930000000    -0.18183    
C1       C      0.886430000000     0.380580000000     0.821990000000     0.410878   
C2       C      0.014520000000     0.384690000000     0.942050000000     0.412192   
C3       C      0.892870000000     0.259040000000     0.946450000000     0.411385   
C4       C      0.016480000000     0.258920000000     0.823370000000     0.425973   
C5       C      0.142630000000     0.511110000000     0.067030000000     0.4264     
C6       C      0.267570000000     0.633600000000     0.074930000000     0.426779   
C7       C      0.142890000000     0.630370000000     0.198550000000     0.425534   
C8       C      0.264820000000     0.506440000000     0.192240000000     0.413671   
C9       C      0.392510000000     0.759480000000     0.946780000000     0.41257    
C10      C      0.509270000000     0.755820000000     0.818300000000     0.428302   
C11      C      0.392960000000     0.881420000000     0.818880000000     0.427017   
C12      C      0.517730000000     0.880490000000     0.942720000000     0.412264   
C13      C      0.640040000000     0.128100000000     0.192650000000     0.41108    
C14      C      0.769160000000     0.006120000000     0.193190000000     0.425689   
C15      C      0.647010000000     0.005920000000     0.068130000000     0.425046   
C16      C      0.769750000000     0.131170000000     0.073450000000     0.427355   
C17      C      0.389540000000     0.377220000000     0.316080000000     0.428196   
C18      C      0.507600000000     0.252480000000     0.316860000000     0.426974   
C19      C      0.505680000000     0.374900000000     0.445640000000     0.426291   
C20      C      0.381670000000     0.252660000000     0.439860000000     0.427114   
C21      C      0.631890000000     0.502130000000     0.571150000000     0.411359   
C22      C      0.632720000000     0.627440000000     0.692210000000     0.413401   
C23      C      0.754620000000     0.503900000000     0.695910000000     0.425003   
C24      C      0.755460000000     0.625800000000     0.568430000000     0.411852   
C25      C      0.889760000000     0.878050000000     0.321820000000     0.41124    
C26      C      0.012100000000     0.753930000000     0.325160000000     0.411106   
C27      C      0.007840000000     0.876650000000     0.449220000000     0.411829   
C28      C      0.881870000000     0.753350000000     0.443490000000     0.42463    
C29      C      0.256650000000     0.127910000000     0.569450000000     0.411536   
C30      C      0.131890000000     0.004550000000     0.575520000000     0.425569   
C31      C      0.261730000000     0.006210000000     0.694300000000     0.411141   
C32      C      0.138360000000     0.129990000000     0.696800000000     0.41189    
C33      C      0.095670000000     0.921620000000     0.468590000000     0.0351488  
C34      C      0.010750000000     0.926370000000     0.525800000000     0.00264243 
C35      C      0.126260000000     0.953940000000     0.500690000000     0.0412713  
C36      C      0.041160000000     0.958850000000     0.558430000000     0.15706    
C37      C      0.844370000000     0.669630000000     0.549310000000     0.0344306  
C38      C      0.759090000000     0.676560000000     0.492820000000     0.00249238 
C39      C      0.875560000000     0.701870000000     0.517530000000     0.0404947  
C40      C      0.790060000000     0.709000000000     0.460590000000     0.156962   
C41      C      0.345870000000     0.170270000000     0.547430000000     0.0353454  
C42      C      0.258730000000     0.178200000000     0.493370000000     0.00317536 
C43      C      0.376780000000     0.201660000000     0.514380000000     0.042648   
C44      C      0.289400000000     0.209860000000     0.459910000000     0.15822    
C45      C      0.626740000000     0.449720000000     0.497170000000     0.0354611  
C46      C      0.541810000000     0.459130000000     0.553600000000     0.00369519 
C47      C      0.594440000000     0.417620000000     0.466060000000     0.0414231  
C48      C      0.508930000000     0.426940000000     0.522590000000     0.15806    
C49      C      0.802450000000     0.923240000000     0.300990000000     0.0357225  
C50      C      0.889170000000     0.928550000000     0.245980000000     0.00375306 
C51      C      0.772700000000     0.955560000000     0.268230000000     0.0420012  
C52      C      0.859710000000     0.961110000000     0.212840000000     0.15764    
C53      C      0.630310000000     0.177380000000     0.269040000000     0.0349026  
C54      C      0.549300000000     0.170960000000     0.207730000000     0.00319322 
C55      C      0.596420000000     0.208700000000     0.299870000000     0.0416014  
C56      C      0.514830000000     0.202360000000     0.238460000000     0.158186   
C57      C      0.271010000000     0.957140000000     0.770900000000     0.0355546  
C58      C      0.351840000000     0.962560000000     0.709260000000     0.00307662 
C59      C      0.304630000000     0.925740000000     0.801840000000     0.042035   
C60      C      0.386010000000     0.931060000000     0.740080000000     0.158619   
C61      C      0.629030000000     0.680300000000     0.765790000000     0.0374923  
C62      C      0.542600000000     0.669870000000     0.711400000000     0.0049944  
C63      C      0.597350000000     0.712560000000     0.797170000000     0.0430812  
C64      C      0.510330000000     0.702220000000     0.742710000000     0.15993    
C65      C      0.525380000000     0.930800000000     0.018370000000     0.0354029  
C66      C      0.608310000000     0.923190000000     0.959290000000     0.00348294 
C67      C      0.558540000000     0.962250000000     0.049600000000     0.0410969  
C68      C      0.641990000000     0.954880000000     0.990340000000     0.157382   
C69      C      0.020830000000     0.705090000000     0.248340000000     0.0350067  
C70      C      0.102030000000     0.710150000000     0.309620000000     0.00265581 
C71      C      0.054330000000     0.674020000000     0.216870000000     0.0406056  
C72      C      0.136090000000     0.678950000000     0.278270000000     0.156762   
C73      C      0.302250000000     0.718970000000     0.970120000000     0.0364143  
C74      C      0.391010000000     0.707330000000     0.021140000000     0.00417411 
C75      C      0.271380000000     0.687210000000     0.002770000000     0.0433642  
C76      C      0.360380000000     0.675400000000     0.054250000000     0.158688   
C77      C      0.269160000000     0.452920000000     0.265140000000     0.0391089  
C78      C      0.354800000000     0.463340000000     0.209770000000     0.0065391  
C79      C      0.301150000000     0.420410000000     0.295910000000     0.0447762  
C80      C      0.387360000000     0.430720000000     0.240440000000     0.16128    
C81      C      0.050420000000     0.174510000000     0.717330000000     0.0358098  
C82      C      0.137520000000     0.181750000000     0.771560000000     0.00366233 
C83      C      0.020360000000     0.207070000000     0.749540000000     0.0419239  
C84      C      0.107730000000     0.214550000000     0.804170000000     0.157535   
C85      C      0.805570000000     0.213330000000     0.965610000000     0.036121   
C86      C      0.890130000000     0.209770000000     0.023350000000     0.00406099 
C87      C      0.775150000000     0.181110000000     0.997980000000     0.0431779  
C88      C      0.859970000000     0.177320000000     0.056150000000     0.158582   
C89      C      0.876460000000     0.428310000000     0.744360000000     0.0339311  
C90      C      0.796330000000     0.424240000000     0.806840000000     0.00206149 
C91      C      0.842740000000     0.459380000000     0.713080000000     0.0400027  
C92      C      0.762040000000     0.455440000000     0.775670000000     0.156505   
C93      C      0.022640000000     0.433670000000     0.018810000000     0.035735   
C94      C      0.102240000000     0.431510000000     0.955680000000     0.00416792 
C95      C      0.055380000000     0.465590000000     0.049780000000     0.0410014  
C96      C      0.135520000000     0.463600000000     0.986500000000     0.157812   
H1       H      0.171940000000     0.963510000000     0.488720000000     0.0524008  
H2       H      0.118920000000     0.907880000000     0.433530000000     0.0541597  
H3       H      0.964970000000     0.916160000000     0.536760000000     0.075445   
H4       H      0.921610000000     0.710530000000     0.529300000000     0.0514087  
H5       H      0.867550000000     0.655010000000     0.583940000000     0.052161   
H6       H      0.712930000000     0.667280000000     0.482020000000     0.0765273  
H7       H      0.423460000000     0.209640000000     0.524730000000     0.0525526  
H8       H      0.369920000000     0.155510000000     0.581500000000     0.0542205  
H9       H      0.211980000000     0.169550000000     0.483980000000     0.0759359  
H10      H      0.617620000000     0.402350000000     0.431810000000     0.0533084  
H11      H      0.673090000000     0.457670000000     0.485690000000     0.0517963  
H12      H      0.519730000000     0.474920000000     0.588140000000     0.0800238  
H13      H      0.726580000000     0.964920000000     0.279010000000     0.0519782  
H14      H      0.778170000000     0.909200000000     0.335330000000     0.0565387  
H15      H      0.935360000000     0.918580000000     0.236130000000     0.0762274  
H16      H      0.617460000000     0.222520000000     0.335970000000     0.0519029  
H17      H      0.675660000000     0.168520000000     0.282590000000     0.0530762  
H18      H      0.529370000000     0.156620000000     0.171390000000     0.0772808  
H19      H      0.283580000000     0.912310000000     0.838130000000     0.0531236  
H20      H      0.225860000000     0.966450000000     0.784550000000     0.0543235  
H21      H      0.371780000000     0.976520000000     0.672730000000     0.0769537  
H22      H      0.621400000000     0.728340000000     0.830630000000     0.0543521  
H23      H      0.675750000000     0.672710000000     0.776350000000     0.0539877  
H24      H      0.519660000000     0.653550000000     0.677640000000     0.0795561  
H25      H      0.536430000000     0.976600000000     0.084920000000     0.0529812  
H26      H      0.479550000000     0.922310000000     0.030920000000     0.0524521  
H27      H      0.629310000000     0.908250000000     0.923750000000     0.0783474  
H28      H      0.033070000000     0.660860000000     0.180540000000     0.0517944  
H29      H      0.975570000000     0.714440000000     0.234990000000     0.0533226  
H30      H      0.122170000000     0.723870000000     0.346180000000     0.0767413  
H31      H      0.224050000000     0.680600000000     0.993540000000     0.0531405  
H32      H      0.277560000000     0.735320000000     0.937400000000     0.0550347  
H33      H      0.438420000000     0.714590000000     0.029450000000     0.0764441  
H34      H      0.277550000000     0.404560000000     0.329590000000     0.0591109  
H35      H      0.222650000000     0.460620000000     0.276330000000     0.055312   
H36      H      0.377280000000     0.479720000000     0.175800000000     0.0842331  
H37      H      0.973970000000     0.215710000000     0.738860000000     0.0516091  
H38      H      0.026080000000     0.159610000000     0.683500000000     0.0561321  
H39      H      0.183980000000     0.172460000000     0.781290000000     0.0764805  
H40      H      0.729670000000     0.171070000000     0.985930000000     0.0542011  
H41      H      0.782390000000     0.226600000000     0.930280000000     0.0542755  
H42      H      0.935720000000     0.220400000000     0.034420000000     0.0784249  
H43      H      0.863480000000     0.472130000000     0.676330000000     0.0510851  
H44      H      0.921380000000     0.418580000000     0.730490000000     0.0518742  
H45      H      0.776710000000     0.410950000000     0.843830000000     0.0766151  
H46      H      0.034550000000     0.477820000000     0.086720000000     0.0518477  
H47      H      0.978310000000     0.422820000000     0.033090000000     0.0526353  
H48      H      0.121970000000     0.418720000000     0.918500000000     0.0804887  
In1      In     0.952320000000     0.321010000000     0.883270000000     2.43206    
In2      In     0.203530000000     0.570360000000     0.133180000000     2.44157    
In3      In     0.453170000000     0.819530000000     0.882140000000     2.4397     
In4      In     0.706010000000     0.067970000000     0.132150000000     2.43925    
In5      In     0.446690000000     0.314150000000     0.379930000000     2.44657    
In6      In     0.694080000000     0.564740000000     0.631480000000     2.4315     
In7      In     0.947920000000     0.815470000000     0.385220000000     2.43063    
In8      In     0.196930000000     0.067170000000     0.634020000000     2.4321     
N1       N      0.037990000000     0.908020000000     0.481140000000    -0.16742    
N2       N      0.099440000000     0.972750000000     0.545570000000    -0.188954   
N3       N      0.786220000000     0.657130000000     0.536930000000    -0.167655   
N4       N      0.848840000000     0.721740000000     0.473200000000    -0.188943   
N5       N      0.286950000000     0.158670000000     0.536870000000    -0.167033   
N6       N      0.348960000000     0.221690000000     0.470690000000    -0.188204   
N7       N      0.600300000000     0.470460000000     0.540750000000    -0.166727   
N8       N      0.535540000000     0.406200000000     0.478270000000    -0.188793   
N9       N      0.860540000000     0.909800000000     0.289730000000    -0.166589   
N10      N      0.800860000000     0.974600000000     0.224130000000    -0.188036   
N11      N      0.606690000000     0.158660000000     0.223050000000    -0.167109   
N12      N      0.538770000000     0.221380000000     0.284940000000    -0.188376   
N13      N      0.294700000000     0.975430000000     0.724720000000    -0.166792   
N14      N      0.362050000000     0.912540000000     0.786810000000    -0.188551   
N15      N      0.601590000000     0.659080000000     0.723000000000    -0.166164   
N16      N      0.538110000000     0.723720000000     0.785980000000    -0.188025   
N17      N      0.550330000000     0.911370000000     0.973330000000    -0.167191   
N18      N      0.616710000000     0.974560000000     0.035890000000    -0.188512   
N19      N      0.044810000000     0.723130000000     0.294530000000    -0.167135   
N20      N      0.111930000000     0.660860000000     0.231390000000    -0.189017   
N21      N      0.362010000000     0.728770000000     0.979250000000    -0.166767   
N22      N      0.300070000000     0.665140000000     0.044690000000    -0.187608   
N23      N      0.296100000000     0.474340000000     0.222250000000    -0.165234   
N24      N      0.360200000000     0.409230000000     0.284010000000    -0.187044   
N25      N      0.108860000000     0.161930000000     0.728440000000    -0.166638   
N26      N      0.048540000000     0.227200000000     0.792980000000    -0.188736   
N27      N      0.862940000000     0.227540000000     0.978350000000    -0.166658   
N28      N      0.801920000000     0.162940000000     0.043230000000    -0.187763   
N29      N      0.853200000000     0.410890000000     0.791160000000    -0.16762    
N30      N      0.785630000000     0.473130000000     0.728370000000    -0.189282   
N31      N      0.046290000000     0.416540000000     0.972030000000    -0.166654   
N32      N      0.111930000000     0.480460000000     0.034200000000    -0.189106   
O1       O      0.037760000000     0.279100000000     0.864280000000    -0.470259   
O2       O      0.962410000000     0.270350000000     0.812690000000    -0.498009   
O3       O      0.034670000000     0.367630000000     0.898730000000    -0.481733   
O4       O      0.939130000000     0.367250000000     0.809190000000    -0.494445   
O5       O      0.945920000000     0.273230000000     0.956640000000    -0.488568   
O6       O      0.866990000000     0.363720000000     0.865660000000    -0.48872    
O7       O      0.962850000000     0.369660000000     0.955630000000    -0.492705   
O8       O      0.869770000000     0.276230000000     0.904360000000    -0.487748   
O9       O      0.287890000000     0.527190000000     0.152330000000    -0.473883   
O10      O      0.210650000000     0.517910000000     0.202310000000    -0.491019   
O11      O      0.212610000000     0.623980000000     0.065430000000    -0.495197   
O12      O      0.195480000000     0.525670000000     0.057490000000    -0.478782   
O13      O      0.196040000000     0.616320000000     0.207880000000    -0.477528   
O14      O      0.120410000000     0.526770000000     0.110280000000    -0.494201   
O15      O      0.289580000000     0.611280000000     0.114050000000    -0.464713   
O16      O      0.120330000000     0.613910000000     0.155810000000    -0.494147   
O17      O      0.463840000000     0.868940000000     0.953770000000    -0.497612   
O18      O      0.539020000000     0.861210000000     0.901090000000    -0.483605   
O19      O      0.454930000000     0.768290000000     0.811850000000    -0.476466   
O20      O      0.447910000000     0.769270000000     0.953330000000    -0.495687   
O21      O      0.370290000000     0.864040000000     0.861090000000    -0.489821   
O22      O      0.367670000000     0.780160000000     0.907630000000    -0.484283   
O23      O      0.535300000000     0.775670000000     0.857460000000    -0.487941   
O24      O      0.446070000000     0.867500000000     0.809170000000    -0.477049   
O25      O      0.789730000000     0.112710000000     0.115910000000    -0.466365   
O26      O      0.717020000000     0.117690000000     0.060810000000    -0.493597   
O27      O      0.715380000000     0.018360000000     0.203870000000    -0.497522   
O28      O      0.693160000000     0.115580000000     0.205190000000    -0.492183   
O29      O      0.699900000000     0.020430000000     0.058610000000    -0.474004   
O30      O      0.620270000000     0.110160000000     0.149660000000    -0.48854    
O31      O      0.790550000000     0.025330000000     0.151730000000    -0.464506   
O32      O      0.623840000000     0.023050000000     0.110250000000    -0.492242   
O33      O      0.360330000000     0.273580000000     0.399450000000    -0.466297   
O34      O      0.436290000000     0.262950000000     0.449900000000    -0.498884   
O35      O      0.454370000000     0.266080000000     0.307090000000    -0.475376   
O36      O      0.444030000000     0.365190000000     0.309460000000    -0.476041   
O37      O      0.451140000000     0.363060000000     0.452320000000    -0.480342   
O38      O      0.363960000000     0.357240000000     0.355360000000    -0.479668   
O39      O      0.530140000000     0.270170000000     0.358970000000    -0.491458   
O40      O      0.530590000000     0.355680000000     0.405530000000    -0.489454   
O41      O      0.701510000000     0.613430000000     0.558860000000    -0.494245   
O42      O      0.778530000000     0.607100000000     0.609670000000    -0.489922   
O43      O      0.609310000000     0.606990000000     0.652220000000    -0.48139    
O44      O      0.609330000000     0.522110000000     0.611810000000    -0.481129   
O45      O      0.776850000000     0.520280000000     0.653000000000    -0.49299    
O46      O      0.685920000000     0.513840000000     0.560830000000    -0.494938   
O47      O      0.687170000000     0.616250000000     0.701490000000    -0.49145    
O48      O      0.701860000000     0.518440000000     0.705890000000    -0.478034   
O49      O      0.862010000000     0.773300000000     0.401850000000    -0.471053   
O50      O      0.935460000000     0.765030000000     0.455680000000    -0.498166   
O51      O      0.959250000000     0.767170000000     0.312680000000    -0.491556   
O52      O      0.943340000000     0.864470000000     0.312840000000    -0.492822   
O53      O      0.954220000000     0.863400000000     0.458690000000    -0.492964   
O54      O      0.865410000000     0.859940000000     0.362840000000    -0.481158   
O55      O      0.032420000000     0.771690000000     0.368060000000    -0.486724   
O56      O      0.031230000000     0.858810000000     0.407650000000    -0.488271   
O57      O      0.113900000000     0.110950000000     0.656400000000    -0.482654   
O58      O      0.192320000000     0.117200000000     0.705550000000    -0.493093   
O59      O      0.184860000000     0.017440000000     0.562910000000    -0.498714   
O60      O      0.202260000000     0.115930000000     0.561290000000    -0.492895   
O61      O      0.208840000000     0.019260000000     0.706910000000    -0.490728   
O62      O      0.280820000000     0.109190000000     0.610170000000    -0.487204   
O63      O      0.112060000000     0.023520000000     0.617750000000    -0.471007   
O64      O      0.281760000000     0.023950000000     0.651300000000    -0.486724   


