data_structure

_audit_creation_method RASPA-1.0
_audit_creation_date 2023-5-22
_audit_author_name 'Poobodin Mano'

_cell_length_a    24.6288
_cell_length_b    23.8554
_cell_length_c    27.0585
_cell_angle_alpha 90
_cell_angle_beta  90
_cell_angle_gamma 90
_cell_volume      15897.7

_symmetry_cell_setting          triclinic
_symmetry_space_group_name_Hall 'P 1'
_symmetry_space_group_name_H-M  'P 1'
_symmetry_Int_Tables_number     1

_symmetry_equiv_pos_as_xyz 'x,y,z'

loop_
_atom_site_label
_atom_site_type_symbol
_atom_site_fract_x
_atom_site_fract_y
_atom_site_fract_z
_atom_site_charge
C1       C      0.942210000000     0.467260000000     0.910630000000     0.407757   
C2       C      0.817650000000     0.337120000000     0.904330000000     0.410046   
C3       C      0.816030000000     0.463020000000     0.788150000000     0.421768   
C4       C      0.952780000000     0.342010000000     0.793240000000     0.420892   
C5       C      0.206690000000     0.715150000000     0.023760000000     0.407328   
C6       C      0.070470000000     0.597080000000     0.033550000000     0.41984    
C7       C      0.198420000000     0.601600000000     0.152150000000     0.406909   
C8       C      0.076750000000     0.734270000000     0.140490000000     0.426248   
C9       C      0.335380000000     0.982050000000     0.788220000000     0.415742   
C10      C      0.449060000000     0.965320000000     0.909350000000     0.411977   
C11      C      0.338480000000     0.829810000000     0.893350000000     0.41419    
C12      C      0.452810000000     0.849770000000     0.770840000000     0.410615   
C13      C      0.689990000000     0.208880000000     0.028410000000     0.420142   
C14      C      0.576160000000     0.214680000000     0.165020000000     0.408558   
C15      C      0.568420000000     0.089950000000     0.042930000000     0.414769   
C16      C      0.695580000000     0.093730000000     0.164740000000     0.405762   
C17      C      0.320080000000     0.475930000000     0.283880000000     0.423381   
C18      C      0.324210000000     0.348680000000     0.401720000000     0.423239   
C19      C      0.450090000000     0.345180000000     0.288880000000     0.418155   
C20      C      0.451910000000     0.477330000000     0.401730000000     0.408348   
C21      C      0.702030000000     0.595170000000     0.655910000000     0.408104   
C22      C      0.580270000000     0.728290000000     0.641810000000     0.417624   
C23      C      0.718680000000     0.725310000000     0.540410000000     0.418461   
C24      C      0.587710000000     0.598760000000     0.524740000000     0.425143   
C25      C      0.956460000000     0.857510000000     0.274240000000     0.412963   
C26      C      0.824360000000     0.970540000000     0.292020000000     0.412758   
C27      C      0.842920000000     0.853680000000     0.413490000000     0.410431   
C28      C      0.970030000000     0.971340000000     0.401310000000     0.412293   
C29      C      0.206290000000     0.107240000000     0.663120000000     0.407064   
C30      C      0.087220000000     0.099470000000     0.533930000000     0.410002   
C31      C      0.081390000000     0.223780000000     0.662160000000     0.41079    
C32      C      0.202170000000     0.224750000000     0.533800000000     0.407973   
C33      C      0.022680000000     0.091090000000     0.469370000000     0.0277664  
C34      C      0.070810000000     0.011290000000     0.495950000000    -0.0127015  
C35      C      0.994850000000     0.058530000000     0.435000000000     0.0333395  
C36      C      0.044280000000     0.978220000000     0.460250000000     0.150006   
C37      C      0.764160000000     0.840580000000     0.462550000000     0.0259793  
C38      C      0.835410000000     0.774960000000     0.466800000000    -0.012498   
C39      C      0.733900000000     0.808270000000     0.495390000000     0.0333994  
C40      C      0.806340000000     0.743300000000     0.501850000000     0.149078   
C41      C      0.217600000000     0.308130000000     0.487900000000     0.0271171  
C42      C      0.275660000000     0.230550000000     0.477580000000    -0.0128125  
C43      C      0.247860000000     0.338160000000     0.453310000000     0.0351195  
C44      C      0.305480000000     0.259640000000     0.441540000000     0.151161   
C45      C      0.488750000000     0.496880000000     0.480820000000     0.0267538  
C46      C      0.519500000000     0.547590000000     0.411620000000    -0.011913   
C47      C      0.524270000000     0.526740000000     0.510980000000     0.0352456  
C48      C      0.557010000000     0.576750000000     0.441370000000     0.149859   
C49      C      0.767230000000     0.087710000000     0.223220000000     0.0270697  
C50      C      0.713850000000     0.008100000000     0.206220000000    -0.0132267  
C51      C      0.798130000000     0.056450000000     0.256460000000     0.0339084  
C52      C      0.743760000000     0.976450000000     0.240630000000     0.150991   
C53      C      0.562130000000     0.297970000000     0.211410000000     0.027295   
C54      C      0.498720000000     0.224290000000     0.216290000000    -0.0133495  
C55      C      0.530450000000     0.329770000000     0.243640000000     0.0336949  
C56      C      0.467400000000     0.255030000000     0.250200000000     0.150414   
C57      C      0.216650000000     0.038640000000     0.725830000000     0.0273353  
C58      C      0.292670000000     0.090370000000     0.699150000000    -0.0130623  
C59      C      0.249510000000     0.008770000000     0.758400000000     0.0340508  
C60      C      0.326110000000     0.061450000000     0.732730000000     0.150571   
C61      C      0.465340000000     0.771930000000     0.717200000000     0.0259158  
C62      C      0.531230000000     0.843440000000     0.720430000000    -0.0131886  
C63      C      0.497300000000     0.742540000000     0.683400000000     0.0349596  
C64      C      0.562890000000     0.815240000000     0.685120000000     0.152762   
C65      C      0.528940000000     0.980800000000     0.956180000000     0.027648   
C66      C      0.453200000000     0.039620000000     0.967670000000    -0.0135544  
C67      C      0.558000000000     0.011880000000     0.990730000000     0.0334459  
C68      C      0.481300000000     0.069950000000     0.004250000000     0.149619   
C69      C      0.969890000000     0.776360000000     0.225410000000     0.0270159  
C70      C      0.029210000000     0.853130000000     0.216570000000    -0.0136732  
C71      C      0.999770000000     0.746500000000     0.190640000000     0.0347126  
C72      C      0.058740000000     0.824090000000     0.180050000000     0.150577   
C73      C      0.218700000000     0.773960000000     0.954160000000     0.0268565  
C74      C      0.295100000000     0.732890000000     0.992010000000    -0.0137865  
C75      C      0.252330000000     0.800630000000     0.920230000000     0.0341751  
C76      C      0.329580000000     0.758960000000     0.957390000000     0.150383   
C77      C      0.255120000000     0.523870000000     0.170460000000     0.0281261  
C78      C      0.228300000000     0.584940000000     0.234280000000    -0.0132058  
C79      C      0.284500000000     0.492040000000     0.204380000000     0.0331482  
C80      C      0.255800000000     0.551800000000     0.269330000000     0.15053    
C81      C      0.997820000000     0.238050000000     0.703770000000     0.02748    
C82      C      0.072710000000     0.295730000000     0.722280000000    -0.0123355  
C83      C      0.966490000000     0.267190000000     0.738030000000     0.0353441  
C84      C      0.042160000000     0.324110000000     0.758430000000     0.150211   
C85      C      0.805900000000     0.259010000000     0.957580000000     0.0282024  
C86      C      0.730520000000     0.314720000000     0.936220000000    -0.013087   
C87      C      0.772830000000     0.226090000000     0.987670000000     0.0339455  
C88      C      0.696290000000     0.280480000000     0.964870000000     0.150238   
C89      C      0.761810000000     0.519630000000     0.673250000000     0.0266946  
C90      C      0.721780000000     0.569640000000     0.738830000000    -0.0141925  
C91      C      0.788920000000     0.485610000000     0.707110000000     0.0339534  
C92      C      0.747440000000     0.534420000000     0.773430000000     0.151531   
C93      C      0.996780000000     0.547340000000     0.925460000000     0.0273429  
C94      C      0.978700000000     0.484470000000     0.990480000000    -0.0138895  
C95      C      0.028000000000     0.580030000000     0.957220000000     0.0334686  
C96      C      0.008460000000     0.518230000000     0.023500000000     0.150509   
H1       H      0.964440000000     0.079430000000     0.412580000000     0.0446798  
H2       H      0.013370000000     0.135490000000     0.471170000000     0.0442538  
H3       H      0.101740000000     0.991910000000     0.518860000000     0.0549551  
H4       H      0.053100000000     0.900770000000     0.422210000000     0.112254   
H5       H      0.092460000000     0.907820000000     0.476020000000     0.0926775  
H6       H      0.693490000000     0.823130000000     0.504500000000     0.0408725  
H7       H      0.746210000000     0.878950000000     0.448540000000     0.041483   
H8       H      0.876110000000     0.761590000000     0.456880000000     0.0553957  
H9       H      0.819470000000     0.682030000000     0.557680000000     0.113969   
H10      H      0.872330000000     0.689500000000     0.514660000000     0.0929248  
H11      H      0.235670000000     0.381050000000     0.445870000000     0.0402569  
H12      H      0.182870000000     0.328510000000     0.504770000000     0.0440243  
H13      H      0.286750000000     0.187460000000     0.485640000000     0.0556551  
H14      H      0.359770000000     0.244090000000     0.382080000000     0.109173   
H15      H      0.352570000000     0.188830000000     0.424400000000     0.0911705  
H16      H      0.523500000000     0.517330000000     0.550210000000     0.0423304  
H17      H      0.463220000000     0.465290000000     0.497890000000     0.0442437  
H18      H      0.519250000000     0.555620000000     0.372130000000     0.0551581  
H19      H      0.592400000000     0.616410000000     0.380040000000     0.0925562  
H20      H      0.629740000000     0.624380000000     0.434810000000     0.111847   
H21      H      0.831720000000     0.077550000000     0.274550000000     0.0438254  
H22      H      0.777490000000     0.131520000000     0.217960000000     0.0436877  
H23      H      0.679780000000     0.988300000000     0.187690000000     0.0562223  
H24      H      0.737940000000     0.901880000000     0.283300000000     0.113395   
H25      H      0.692030000000     0.906890000000     0.233730000000     0.0929478  
H26      H      0.544470000000     0.371730000000     0.252380000000     0.0420302  
H27      H      0.599450000000     0.316210000000     0.197490000000     0.0440885  
H28      H      0.485870000000     0.182070000000     0.206920000000     0.0532928  
H29      H      0.406910000000     0.242430000000     0.305110000000     0.109885   
H30      H      0.414860000000     0.187180000000     0.262950000000     0.0903726  
H31      H      0.230320000000     0.976190000000     0.780250000000     0.0438832  
H32      H      0.173700000000     0.028670000000     0.724750000000     0.0442386  
H33      H      0.310480000000     0.123480000000     0.676910000000     0.055757   
H34      H      0.393520000000     0.112310000000     0.716980000000     0.0927565  
H35      H      0.402540000000     0.068530000000     0.768630000000     0.111634   
H36      H      0.482490000000     0.702170000000     0.670800000000     0.0410879  
H37      H      0.426930000000     0.753710000000     0.728410000000     0.0422115  
H38      H      0.544980000000     0.884040000000     0.733540000000     0.0562814  
H39      H      0.617730000000     0.882300000000     0.678700000000     0.0936551  
H40      H      0.625710000000     0.830500000000     0.633010000000     0.117316   
H41      H      0.599730000000     0.999520000000     0.997520000000     0.043302   
H42      H      0.549110000000     0.945580000000     0.938680000000     0.044528   
H43      H      0.411250000000     0.050560000000     0.959960000000     0.0529769  
H44      H      0.465900000000     0.124240000000     0.065030000000     0.117115   
H45      H      0.412190000000     0.116960000000     0.022880000000     0.0920904  
H46      H      0.986610000000     0.704050000000     0.182670000000     0.0410458  
H47      H      0.934830000000     0.756070000000     0.241810000000     0.0441495  
H48      H      0.040840000000     0.895850000000     0.225460000000     0.0527384  
H49      H      0.114010000000     0.839250000000     0.121190000000     0.113149   
H50      H      0.107050000000     0.894250000000     0.163900000000     0.0922143  
H51      H      0.233040000000     0.827750000000     0.893250000000     0.0445404  
H52      H      0.175260000000     0.780640000000     0.951090000000     0.0448905  
H53      H      0.312820000000     0.705080000000     0.019360000000     0.0540927  
H54      H      0.409460000000     0.753410000000     0.928250000000     0.111748   
H55      H      0.398610000000     0.717040000000     0.984000000000     0.0926161  
H56      H      0.306850000000     0.456370000000     0.190090000000     0.0422044  
H57      H      0.255340000000     0.510840000000     0.132060000000     0.0442815  
H58      H      0.205270000000     0.620860000000     0.247240000000     0.0547153  
H59      H      0.256630000000     0.536170000000     0.346790000000     0.115163   
H60      H      0.225190000000     0.598840000000     0.328720000000     0.0924827  
H61      H      0.924340000000     0.254700000000     0.741880000000     0.0432524  
H62      H      0.978900000000     0.203930000000     0.683630000000     0.0445953  
H63      H      0.115140000000     0.306870000000     0.717580000000     0.0546259  
H64      H      0.053290000000     0.375070000000     0.822150000000     0.111869   
H65      H      0.109850000000     0.369870000000     0.782920000000     0.0927719  
H66      H      0.792080000000     0.192320000000     0.008010000000     0.0423232  
H67      H      0.848690000000     0.248580000000     0.955320000000     0.0446758  
H68      H      0.712540000000     0.348750000000     0.915200000000     0.0528406  
H69      H      0.612920000000     0.259120000000     0.972460000000     0.111832   
H70      H      0.625960000000     0.321360000000     0.939800000000     0.0920303  
H71      H      0.815850000000     0.453760000000     0.692340000000     0.0416132  
H72      H      0.768110000000     0.511800000000     0.634180000000     0.0435562  
H73      H      0.694310000000     0.601780000000     0.752320000000     0.0549022  
H74      H      0.740560000000     0.508870000000     0.848470000000     0.115511   
H75      H      0.705680000000     0.570670000000     0.833080000000     0.0927371  
H76      H      0.047350000000     0.616820000000     0.941550000000     0.0433259  
H77      H      0.992770000000     0.560820000000     0.887350000000     0.0445243  
H78      H      0.958520000000     0.447400000000     0.004760000000     0.0545449  
H79      H      0.017310000000     0.532470000000     0.100770000000     0.114478   
H80      H      0.986180000000     0.468980000000     0.084530000000     0.0927949  
In1      In     0.882460000000     0.403160000000     0.848390000000     2.40555    
In2      In     0.138990000000     0.662190000000     0.087450000000     2.40507    
In3      In     0.394680000000     0.906200000000     0.839850000000     2.40749    
In4      In     0.634630000000     0.153280000000     0.100070000000     2.41306    
In5      In     0.386590000000     0.414620000000     0.343270000000     2.40527    
In6      In     0.646880000000     0.659840000000     0.590270000000     2.40175    
In7      In     0.899140000000     0.912480000000     0.344780000000     2.40204    
In8      In     0.143140000000     0.164000000000     0.598550000000     2.41981    
N1       N      0.059970000000     0.067290000000     0.500210000000    -0.169517   
N2       N      0.003820000000     0.001910000000     0.431460000000    -0.195297   
N3       N      0.062640000000     0.924940000000     0.453030000000    -0.21115    
N4       N      0.814200000000     0.823140000000     0.447390000000    -0.169951   
N5       N      0.753610000000     0.758530000000     0.513590000000    -0.196925   
N6       N      0.833040000000     0.700890000000     0.525290000000    -0.211676   
N7       N      0.231910000000     0.254650000000     0.500230000000    -0.168492   
N8       N      0.292770000000     0.315010000000     0.431340000000    -0.197139   
N9       N      0.343070000000     0.230240000000     0.415170000000    -0.2115     
N10      N      0.486170000000     0.507600000000     0.431330000000    -0.168682   
N11      N      0.557350000000     0.567700000000     0.491990000000    -0.197438   
N12      N      0.594490000000     0.609540000000     0.418160000000    -0.211583   
N13      N      0.725720000000     0.063270000000     0.197690000000    -0.168597   
N14      N      0.788110000000     0.000490000000     0.263840000000    -0.1952     
N15      N      0.725020000000     0.924400000000     0.252520000000    -0.211421   
N16      N      0.545740000000     0.245710000000     0.197290000000    -0.169389   
N17      N      0.482230000000     0.309520000000     0.261720000000    -0.196168   
N18      N      0.425820000000     0.227870000000     0.273270000000    -0.211361   
N19      N      0.238450000000     0.078640000000     0.695740000000    -0.168636   
N20      N      0.304410000000     0.018190000000     0.760520000000    -0.196167   
N21      N      0.377900000000     0.080220000000     0.739120000000    -0.211328   
N22      N      0.483020000000     0.821610000000     0.736430000000    -0.16974    
N23      N      0.547050000000     0.762640000000     0.669100000000    -0.195872   
N24      N      0.606030000000     0.843050000000     0.665220000000    -0.211916   
N25      N      0.477020000000     0.995330000000     0.944100000000    -0.170151   
N26      N      0.535340000000     0.057600000000     0.013560000000    -0.195846   
N27      N      0.452540000000     0.107630000000     0.031620000000    -0.212315   
N28      N      0.985270000000     0.829090000000     0.239020000000    -0.170703   
N29      N      0.045400000000     0.768980000000     0.169350000000    -0.197655   
N30      N      0.097050000000     0.853100000000     0.154220000000    -0.211855   
N31      N      0.240160000000     0.740890000000     0.990390000000    -0.169396   
N32      N      0.307710000000     0.795450000000     0.922950000000    -0.195644   
N33      N      0.382960000000     0.743970000000     0.957050000000    -0.211389   
N34      N      0.227590000000     0.570520000000     0.185390000000    -0.168184   
N35      N      0.286400000000     0.506460000000     0.253480000000    -0.197256   
N36      N      0.247430000000     0.563520000000     0.318060000000    -0.211973   
N37      N      0.050590000000     0.252810000000     0.695560000000    -0.16945    
N38      N      0.987650000000     0.311320000000     0.764230000000    -0.196646   
N39      N      0.068980000000     0.360180000000     0.788950000000    -0.211217   
N40      N      0.784890000000     0.303900000000     0.932810000000    -0.16914    
N41      N      0.718670000000     0.237950000000     0.993150000000    -0.197187   
N42      N      0.641640000000     0.288150000000     0.960570000000    -0.211158   
N43      N      0.728840000000     0.561910000000     0.689170000000    -0.169483   
N44      N      0.783500000000     0.493900000000     0.757060000000    -0.196781   
N45      N      0.732170000000     0.538950000000     0.821690000000    -0.21199    
N46      N      0.972700000000     0.499400000000     0.942010000000    -0.169428   
N47      N      0.035410000000     0.565110000000     0.005750000000    -0.196502   
N48      N      0.005840000000     0.505360000000     0.072540000000    -0.211861   
O1       O      0.905540000000     0.325330000000     0.803960000000    -0.498443   
O2       O      0.963430000000     0.390510000000     0.808910000000    -0.507741   
O3       O      0.867860000000     0.328050000000     0.899080000000    -0.489403   
O4       O      0.919160000000     0.422570000000     0.924090000000    -0.501292   
O5       O      0.841440000000     0.419890000000     0.773990000000    -0.504979   
O6       O      0.934800000000     0.479850000000     0.865800000000    -0.492546   
O7       O      0.800210000000     0.379540000000     0.881330000000    -0.504538   
O8       O      0.825810000000     0.476760000000     0.832280000000    -0.500836   
O9       O      0.060670000000     0.686540000000     0.126630000000    -0.513447   
O10      O      0.125220000000     0.744870000000     0.128660000000    -0.503615   
O11      O      0.087570000000     0.644190000000     0.019230000000    -0.500477   
O12      O      0.156090000000     0.723140000000     0.024520000000    -0.495168   
O13      O      0.172640000000     0.645270000000     0.164380000000    -0.502052   
O14      O      0.223590000000     0.680920000000     0.055830000000    -0.497745   
O15      O      0.090290000000     0.581580000000     0.074270000000    -0.499318   
O16      O      0.194470000000     0.588600000000     0.106930000000    -0.487895   
O17      O      0.407770000000     0.832120000000     0.786810000000    -0.504293   
O18      O      0.468000000000     0.895530000000     0.789560000000    -0.49796    
O19      O      0.401320000000     0.977500000000     0.896120000000    -0.507028   
O20      O      0.385670000000     0.975300000000     0.781830000000    -0.505664   
O21      O      0.318560000000     0.856020000000     0.857050000000    -0.490694   
O22      O      0.315010000000     0.949380000000     0.819890000000    -0.489992   
O23      O      0.468980000000     0.923180000000     0.887780000000    -0.49627    
O24      O      0.387210000000     0.842390000000     0.902650000000    -0.504153   
O25      O      0.705150000000     0.144590000000     0.154930000000    -0.49724    
O26      O      0.655660000000     0.073240000000     0.141770000000    -0.49416    
O27      O      0.619930000000     0.232280000000     0.146270000000    -0.494659   
O28      O      0.707950000000     0.165060000000     0.048900000000    -0.505815   
O29      O      0.615160000000     0.074160000000     0.056290000000    -0.495056   
O30      O      0.645300000000     0.225420000000     0.045660000000    -0.508273   
O31      O      0.562470000000     0.166110000000     0.151310000000    -0.505024   
O32      O      0.556440000000     0.138890000000     0.056740000000    -0.502768   
O33      O      0.421600000000     0.439000000000     0.418290000000    -0.502157   
O34      O      0.448900000000     0.484490000000     0.355510000000    -0.491002   
O35      O      0.307560000000     0.394850000000     0.384460000000    -0.504862   
O36      O      0.334590000000     0.491830000000     0.326260000000    -0.506813   
O37      O      0.467370000000     0.390850000000     0.306640000000    -0.497636   
O38      O      0.341340000000     0.430180000000     0.270700000000    -0.506289   
O39      O      0.372990000000     0.337850000000     0.391440000000    -0.503778   
O40      O      0.400280000000     0.336730000000     0.296400000000    -0.501042   
O41      O      0.594620000000     0.584270000000     0.569190000000    -0.504848   
O42      O      0.608710000000     0.645410000000     0.514240000000    -0.511559   
O43      O      0.631060000000     0.734850000000     0.639620000000    -0.495428   
O44      O      0.670190000000     0.633870000000     0.668870000000    -0.500295   
O45      O      0.727950000000     0.674690000000     0.550860000000    -0.503131   
O46      O      0.706460000000     0.589260000000     0.609740000000    -0.493159   
O47      O      0.563090000000     0.685170000000     0.619450000000    -0.498603   
O48      O      0.672360000000     0.741960000000     0.553890000000    -0.500123   
O49      O      0.938790000000     0.994010000000     0.370130000000    -0.48671    
O50      O      0.964330000000     0.918960000000     0.404600000000    -0.503809   
O51      O      0.829260000000     0.917940000000     0.289540000000    -0.503534   
O52      O      0.915640000000     0.836790000000     0.295590000000    -0.500584   
O53      O      0.826240000000     0.899720000000     0.396160000000    -0.50583    
O54      O      0.968520000000     0.906370000000     0.288310000000    -0.508129   
O55      O      0.858400000000     0.993850000000     0.320300000000    -0.485202   
O56      O      0.888040000000     0.837760000000     0.396480000000    -0.492688   
O57      O      0.212970000000     0.174480000000     0.544620000000    -0.500446   
O58      O      0.161390000000     0.244790000000     0.556010000000    -0.493965   
O59      O      0.123080000000     0.079850000000     0.562440000000    -0.498274   
O60      O      0.156320000000     0.096950000000     0.657680000000    -0.497332   
O61      O      0.130540000000     0.235340000000     0.653650000000    -0.501761   
O62      O      0.224230000000     0.146030000000     0.635910000000    -0.495221   
O63      O      0.079130000000     0.151470000000     0.538570000000    -0.501703   
O64      O      0.063270000000     0.182510000000     0.638050000000    -0.502256   


