data_structure

_audit_creation_method RASPA-1.0
_audit_creation_date 2023-5-22
_audit_author_name 'Poobodin Mano'

_cell_length_a    26.3639
_cell_length_b    24.4724
_cell_length_c    25.0063
_cell_angle_alpha 90
_cell_angle_beta  90
_cell_angle_gamma 90
_cell_volume      16133.8

_symmetry_cell_setting          triclinic
_symmetry_space_group_name_Hall 'P 1'
_symmetry_space_group_name_H-M  'P 1'
_symmetry_Int_Tables_number     1

_symmetry_equiv_pos_as_xyz 'x,y,z'

loop_
_atom_site_label
_atom_site_type_symbol
_atom_site_fract_x
_atom_site_fract_y
_atom_site_fract_z
_atom_site_charge
C1       C      0.790920000000     0.327120000000     0.938250000000     0.405539   
C2       C      0.911830000000     0.455830000000     0.943280000000     0.419027   
C3       C      0.915200000000     0.326390000000     0.820320000000     0.418997   
C4       C      0.793680000000     0.458120000000     0.820630000000     0.417517   
C5       C      0.040070000000     0.582630000000     0.067320000000     0.412913   
C6       C      0.165590000000     0.706880000000     0.067760000000     0.409017   
C7       C      0.046510000000     0.704410000000     0.192670000000     0.406798   
C8       C      0.165340000000     0.577000000000     0.188310000000     0.421421   
C9       C      0.289340000000     0.837370000000     0.942210000000     0.41554    
C10      C      0.409200000000     0.832280000000     0.816880000000     0.407897   
C11      C      0.293960000000     0.961880000000     0.817660000000     0.41368    
C12      C      0.415050000000     0.956240000000     0.945050000000     0.412442   
C13      C      0.664500000000     0.201530000000     0.065540000000     0.41187    
C14      C      0.668140000000     0.072380000000     0.188650000000     0.412373   
C15      C      0.554290000000     0.207520000000     0.200150000000     0.422048   
C16      C      0.543010000000     0.076560000000     0.075400000000     0.421252   
C17      C      0.416060000000     0.454580000000     0.443710000000     0.405652   
C18      C      0.292180000000     0.453130000000     0.316860000000     0.409421   
C19      C      0.426150000000     0.335970000000     0.322350000000     0.411762   
C20      C      0.290230000000     0.332270000000     0.434240000000     0.407431   
C21      C      0.666440000000     0.584310000000     0.694750000000     0.407705   
C22      C      0.534720000000     0.704850000000     0.690290000000     0.417137   
C23      C      0.668300000000     0.701560000000     0.573570000000     0.409552   
C24      C      0.537580000000     0.581300000000     0.575260000000     0.415765   
C25      C      0.921600000000     0.829070000000     0.322440000000     0.416512   
C26      C      0.796310000000     0.823590000000     0.444770000000     0.419499   
C27      C      0.912990000000     0.954680000000     0.443540000000     0.413753   
C28      C      0.795470000000     0.945600000000     0.313710000000     0.412194   
C29      C      0.042320000000     0.203520000000     0.691190000000     0.407282   
C30      C      0.167750000000     0.089410000000     0.691890000000     0.419318   
C31      C      0.040860000000     0.084920000000     0.564670000000     0.407153   
C32      C      0.163290000000     0.204590000000     0.558940000000     0.414748   
C33      C      0.025810000000     0.007130000000     0.510500000000     0.0271988  
C34      C      0.958970000000     0.068220000000     0.528550000000    -0.00593763 
C35      C      0.993110000000     0.974860000000     0.480280000000     0.0302133  
C36      C      0.925350000000     0.035860000000     0.498290000000     0.114434   
C37      C      0.871000000000     0.055340000000     0.493690000000    -0.202717   
C38      C      0.709990000000     0.784720000000     0.552300000000     0.0268689  
C39      C      0.725140000000     0.706280000000     0.500150000000    -0.00473175 
C40      C      0.742570000000     0.814710000000     0.519660000000     0.0302621  
C41      C      0.758180000000     0.736000000000     0.466840000000     0.113097   
C42      C      0.783960000000     0.705080000000     0.421940000000    -0.20068    
C43      C      0.234030000000     0.321350000000     0.507460000000     0.0276842  
C44      C      0.249290000000     0.247240000000     0.449610000000    -0.00431861 
C45      C      0.202480000000     0.288560000000     0.538500000000     0.0308353  
C46      C      0.217030000000     0.213710000000     0.480280000000     0.112089   
C47      C      0.210040000000     0.155220000000     0.461920000000    -0.200578   
C48      C      0.472580000000     0.528640000000     0.457280000000     0.0273746  
C49      C      0.448140000000     0.474050000000     0.530400000000    -0.00483226 
C50      C      0.502640000000     0.560260000000     0.491010000000     0.0313348  
C51      C      0.478300000000     0.505740000000     0.565070000000     0.113951   
C52      C      0.478420000000     0.490220000000     0.623700000000    -0.201906   
C53      C      0.774600000000     0.029340000000     0.271580000000     0.0272792  
C54      C      0.722330000000     0.952460000000     0.258550000000    -0.00444645 
C55      C      0.741910000000     0.060720000000     0.240490000000     0.0307561  
C56      C      0.689260000000     0.983510000000     0.226320000000     0.111986   
C57      C      0.643260000000     0.954700000000     0.203490000000    -0.200503   
C58      C      0.469310000000     0.317320000000     0.241170000000     0.0269399  
C59      C      0.484740000000     0.262470000000     0.316800000000    -0.00476039 
C60      C      0.502040000000     0.284860000000     0.211130000000     0.0304214  
C61      C      0.518150000000     0.229450000000     0.287020000000     0.112413   
C62      C      0.544550000000     0.183340000000     0.316290000000    -0.200381   
C63      C      0.220270000000     0.973410000000     0.764660000000     0.0278585  
C64      C      0.275390000000     0.047880000000     0.777990000000    -0.00466338 
C65      C      0.188770000000     0.006160000000     0.733590000000     0.0310362  
C66      C      0.243930000000     0.081540000000     0.746470000000     0.112438   
C67      C      0.259900000000     0.140520000000     0.739280000000    -0.200873   
C68      C      0.469390000000     0.761040000000     0.806510000000     0.0283828  
C69      C      0.438270000000     0.806820000000     0.730480000000    -0.00454547 
C70      C      0.500510000000     0.729200000000     0.774050000000     0.0310833  
C71      C      0.469490000000     0.774880000000     0.697090000000     0.113718   
C72      C      0.465880000000     0.784690000000     0.637420000000    -0.201577   
C73      C      0.494170000000     0.999080000000     0.961930000000     0.0267909  
C74      C      0.430440000000     0.000540000000     0.027890000000    -0.00529397 
C75      C      0.526070000000     0.028780000000     0.995520000000     0.0311065  
C76      C      0.462200000000     0.030600000000     0.062280000000     0.112492   
C77      C      0.441630000000     0.044560000000     0.117170000000    -0.199938   
C78      C      0.985250000000     0.774360000000     0.204510000000     0.0279977  
C79      C      0.018090000000     0.728370000000     0.279630000000    -0.00517731 
C80      C      0.954400000000     0.805660000000     0.237780000000     0.0307587  
C81      C      0.987140000000     0.759680000000     0.313790000000     0.114511   
C82      C      0.991890000000     0.749370000000     0.373320000000    -0.201687   
C83      C      0.235010000000     0.718040000000     0.008360000000     0.0281404  
C84      C      0.187040000000     0.794680000000     0.034500000000    -0.00536375 
C85      C      0.265650000000     0.751470000000     0.976890000000     0.0308916  
C86      C      0.217630000000     0.829000000000     0.002880000000     0.114835   
C87      C      0.204750000000     0.889340000000     0.002480000000    -0.201941   
C88      C      0.259860000000     0.538630000000     0.288010000000     0.0272686  
C89      C      0.228710000000     0.457440000000     0.249620000000    -0.0042922  
C90      C      0.228030000000     0.569120000000     0.255060000000     0.0327228  
C91      C      0.196080000000     0.487690000000     0.216250000000     0.113796   
C92      C      0.162910000000     0.455870000000     0.177820000000    -0.201108   
C93      C      0.993780000000     0.283180000000     0.708040000000     0.02794    
C94      C      0.996300000000     0.212970000000     0.772370000000    -0.00493941 
C95      C      0.961930000000     0.313520000000     0.741030000000     0.0317148  
C96      C      0.963910000000     0.243100000000     0.806130000000     0.112755   
C97      C      0.949820000000     0.217610000000     0.859280000000    -0.20099    
C98      C      0.776980000000     0.269510000000     0.012960000000     0.0269882  
C99      C      0.709220000000     0.289830000000     0.954920000000    -0.00625363 
C100     C      0.744670000000     0.238120000000     0.044470000000     0.0296163  
C101     C      0.676050000000     0.258120000000     0.986380000000     0.113923   
C102     C      0.621430000000     0.253910000000     0.968100000000    -0.202302   
C103     C      0.705000000000     0.499640000000     0.716350000000     0.0269335  
C104     C      0.724360000000     0.577850000000     0.767250000000    -0.00453475 
C105     C      0.737220000000     0.468590000000     0.748310000000     0.0322526  
C106     C      0.757060000000     0.546970000000     0.799990000000     0.113218   
C107     C      0.784380000000     0.576910000000     0.844500000000    -0.20079    
C108     C      0.019300000000     0.539250000000     0.985380000000     0.0266886  
C109     C      0.963000000000     0.533380000000     0.058260000000    -0.00502128 
C110     C      0.986710000000     0.507080000000     0.954880000000     0.0303911  
C111     C      0.929450000000     0.501230000000     0.027800000000     0.113002   
C112     C      0.881190000000     0.482180000000     0.054890000000    -0.201006   
H1       H      0.008950000000     0.938370000000     0.462180000000     0.0403555  
H2       H      0.064990000000     0.994170000000     0.514240000000     0.0416941  
H3       H      0.944720000000     0.105110000000     0.547400000000     0.0488662  
H4       H      0.844940000000     0.024800000000     0.511670000000     0.0911378  
H5       H      0.864580000000     0.094500000000     0.515140000000     0.0708245  
H6       H      0.861210000000     0.062620000000     0.451100000000     0.0906724  
H7       H      0.747800000000     0.857560000000     0.529280000000     0.0397216  
H8       H      0.691880000000     0.805540000000     0.585490000000     0.0408434  
H9       H      0.718860000000     0.663290000000     0.491800000000     0.0494876  
H10      H      0.825770000000     0.709430000000     0.425100000000     0.0865605  
H11      H      0.775720000000     0.660580000000     0.423350000000     0.0699268  
H12      H      0.770310000000     0.720310000000     0.382670000000     0.0892359  
H13      H      0.185070000000     0.307330000000     0.573260000000     0.0427069  
H14      H      0.239590000000     0.363450000000     0.519710000000     0.0426435  
H15      H      0.267600000000     0.230090000000     0.414540000000     0.0488516  
H16      H      0.169460000000     0.147320000000     0.452930000000     0.0892499  
H17      H      0.231600000000     0.146200000000     0.424780000000     0.0698293  
H18      H      0.224040000000     0.126600000000     0.493060000000     0.0870196  
H19      H      0.523390000000     0.593790000000     0.472930000000     0.0421303  
H20      H      0.471430000000     0.539240000000     0.415180000000     0.0427296  
H21      H      0.426740000000     0.440080000000     0.546810000000     0.0499068  
H22      H      0.465350000000     0.525220000000     0.648360000000     0.0875765  
H23      H      0.452410000000     0.455620000000     0.632370000000     0.0708284  
H24      H      0.517020000000     0.477150000000     0.636020000000     0.0917449  
H25      H      0.751780000000     0.103360000000     0.234810000000     0.0425897  
H26      H      0.807680000000     0.049150000000     0.288580000000     0.0407259  
H27      H      0.713840000000     0.909640000000     0.265430000000     0.0475466  
H28      H      0.644730000000     0.955290000000     0.159130000000     0.0895647  
H29      H      0.641370000000     0.911120000000     0.215790000000     0.0695156  
H30      H      0.608000000000     0.974520000000     0.218070000000     0.0847525  
H31      H      0.507130000000     0.295640000000     0.169400000000     0.0398815  
H32      H      0.450980000000     0.351520000000     0.221470000000     0.041499   
H33      H      0.478490000000     0.252990000000     0.358690000000     0.0484721  
H34      H      0.586220000000     0.186130000000     0.310430000000     0.0866205  
H35      H      0.537870000000     0.184990000000     0.360140000000     0.0693429  
H36      H      0.530070000000     0.143350000000     0.301920000000     0.0864705  
H37      H      0.155060000000     0.987140000000     0.717060000000     0.0424744  
H38      H      0.209350000000     0.931130000000     0.770770000000     0.0416584  
H39      H      0.309520000000     0.065170000000     0.795370000000     0.0478083  
H40      H      0.229710000000     0.168250000000     0.754160000000     0.0875844  
H41      H      0.294860000000     0.150450000000     0.762110000000     0.0698857  
H42      H      0.268150000000     0.148780000000     0.696500000000     0.087735   
H43      H      0.524420000000     0.699260000000     0.793740000000     0.0421878  
H44      H      0.470600000000     0.754130000000     0.849340000000     0.0430108  
H45      H      0.413790000000     0.837330000000     0.712410000000     0.0490879  
H46      H      0.456190000000     0.746070000000     0.616490000000     0.0869273  
H47      H      0.435730000000     0.814610000000     0.627110000000     0.0705998  
H48      H      0.502240000000     0.801490000000     0.622200000000     0.0906961  
H49      H      0.563440000000     0.038950000000     0.980340000000     0.0400624  
H50      H      0.508370000000     0.987440000000     0.922840000000     0.0411607  
H51      H      0.392720000000     0.989570000000     0.041570000000     0.047601   
H52      H      0.436340000000     0.089410000000     0.120820000000     0.0874557  
H53      H      0.404180000000     0.025270000000     0.124810000000     0.0686998  
H54      H      0.467740000000     0.029290000000     0.148640000000     0.0854738  
H55      H      0.929860000000     0.835480000000     0.218800000000     0.0413014  
H56      H      0.983300000000     0.781590000000     0.161770000000     0.0426296  
H57      H      0.043180000000     0.698030000000     0.297020000000     0.0494516  
H58      H      0.955990000000     0.731980000000     0.389100000000     0.0879484  
H59      H      0.022530000000     0.719740000000     0.382800000000     0.0704981  
H60      H      0.001590000000     0.787910000000     0.394410000000     0.0919526  
H61      H      0.296220000000     0.731950000000     0.955020000000     0.0427535  
H62      H      0.243200000000     0.674620000000     0.009300000000     0.0420768  
H63      H      0.156020000000     0.812600000000     0.057020000000     0.0499689  
H64      H      0.195250000000     0.902690000000     0.961250000000     0.0899831  
H65      H      0.171280000000     0.898900000000     0.027810000000     0.0706601  
H66      H      0.237000000000     0.913420000000     0.018600000000     0.0909501  
H67      H      0.229460000000     0.613220000000     0.259180000000     0.0421254  
H68      H      0.284340000000     0.560410000000     0.315590000000     0.0429175  
H69      H      0.228520000000     0.413180000000     0.246770000000     0.04882    
H70      H      0.171040000000     0.468410000000     0.136020000000     0.0878589  
H71      H      0.169860000000     0.411140000000     0.180070000000     0.0702769  
H72      H      0.122290000000     0.462470000000     0.187560000000     0.0893474  
H73      H      0.949620000000     0.353060000000     0.726310000000     0.0423174  
H74      H      0.004510000000     0.300610000000     0.669790000000     0.0436649  
H75      H      0.009570000000     0.173190000000     0.785500000000     0.0483008  
H76      H      0.908190000000     0.211180000000     0.861420000000     0.0889832  
H77      H      0.967870000000     0.177020000000     0.865130000000     0.0701738  
H78      H      0.962860000000     0.244050000000     0.892640000000     0.0880789  
H79      H      0.761030000000     0.218730000000     0.079460000000     0.0423266  
H80      H      0.816390000000     0.272820000000     0.025000000000     0.0405936  
H81      H      0.694480000000     0.310020000000     0.919550000000     0.0487176  
H82      H      0.595880000000     0.272240000000     0.998500000000     0.0901857  
H83      H      0.614640000000     0.276100000000     0.930000000000     0.0704871  
H84      H      0.611280000000     0.210510000000     0.960850000000     0.0898731  
H85      H      0.740630000000     0.425500000000     0.738810000000     0.0423696  
H86      H      0.685310000000     0.479270000000     0.683900000000     0.0415401  
H87      H      0.719780000000     0.621140000000     0.775350000000     0.0493848  
H88      H      0.826050000000     0.572870000000     0.839450000000     0.0879762  
H89      H      0.775830000000     0.621370000000     0.844590000000     0.0705322  
H90      H      0.772310000000     0.560630000000     0.883940000000     0.0883237  
H91      H      0.998210000000     0.498060000000     0.914170000000     0.0409145  
H92      H      0.054240000000     0.553300000000     0.967060000000     0.0415417  
H93      H      0.952970000000     0.543300000000     0.099230000000     0.0481154  
H94      H      0.879850000000     0.436840000000     0.055850000000     0.089325   
H95      H      0.878630000000     0.496320000000     0.097030000000     0.0696945  
H96      H      0.847600000000     0.498900000000     0.033690000000     0.0885353  
In1      In     0.853490000000     0.391390000000     0.879930000000     2.40844    
In2      In     0.104810000000     0.642200000000     0.128020000000     2.40713    
In3      In     0.352700000000     0.897790000000     0.880360000000     2.40533    
In4      In     0.606740000000     0.140600000000     0.132880000000     2.40494    
In5      In     0.356590000000     0.394090000000     0.378370000000     2.40726    
In6      In     0.601990000000     0.643700000000     0.633820000000     2.41321    
In7      In     0.855190000000     0.888180000000     0.381490000000     2.40464    
In8      In     0.104000000000     0.145370000000     0.626390000000     2.40442    
N1       N      0.008690000000     0.053630000000     0.534550000000    -0.171542   
N2       N      0.942990000000     0.988620000000     0.474040000000    -0.192418   
N3       N      0.701100000000     0.730770000000     0.542230000000    -0.171864   
N4       N      0.766140000000     0.791090000000     0.476520000000    -0.193995   
N5       N      0.257780000000     0.300480000000     0.463520000000    -0.170922   
N6       N      0.193990000000     0.234820000000     0.525600000000    -0.192631   
N7       N      0.445570000000     0.485580000000     0.476980000000    -0.170678   
N8       N      0.506090000000     0.549050000000     0.544670000000    -0.192481   
N9       N      0.764390000000     0.975560000000     0.281120000000    -0.172408   
N10      N      0.699200000000     0.038450000000     0.217940000000    -0.191666   
N11      N      0.460100000000     0.305520000000     0.293600000000    -0.172392   
N12      N      0.525530000000     0.240180000000     0.233180000000    -0.194624   
N13      N      0.263430000000     0.994270000000     0.786760000000    -0.172305   
N14      N      0.200270000000     0.059960000000     0.723950000000    -0.193111   
N15      N      0.438730000000     0.800050000000     0.784740000000    -0.170624   
N16      N      0.501480000000     0.736290000000     0.719600000000    -0.192844   
N17      N      0.446440000000     0.985270000000     0.978100000000    -0.172843   
N18      N      0.510290000000     0.045370000000     0.045240000000    -0.193471   
N19      N      0.016740000000     0.735640000000     0.225460000000    -0.170339   
N20      N      0.954500000000     0.798190000000     0.292170000000    -0.192129   
N21      N      0.195840000000     0.739710000000     0.037020000000    -0.171554   
N22      N      0.257420000000     0.806770000000     0.973890000000    -0.192023   
N23      N      0.260260000000     0.482970000000     0.285070000000    -0.171449   
N24      N      0.195990000000     0.544230000000     0.219310000000    -0.192951   
N25      N      0.010930000000     0.233100000000     0.723770000000    -0.170614   
N26      N      0.946730000000     0.294010000000     0.789920000000    -0.193296   
N27      N      0.759170000000     0.295490000000     0.968500000000    -0.171542   
N28      N      0.694270000000     0.232450000000     0.031890000000    -0.192003   
N29      N      0.698540000000     0.554070000000     0.725950000000    -0.171393   
N30      N      0.763090000000     0.491590000000     0.790290000000    -0.192263   
N31      N      0.007540000000     0.551980000000     0.037030000000    -0.172749   
N32      N      0.941910000000     0.487860000000     0.975570000000    -0.193314   
O1       O      0.817500000000     0.473990000000     0.861520000000    -0.514531   
O2       O      0.800030000000     0.408040000000     0.810040000000    -0.495247   
O3       O      0.868720000000     0.438430000000     0.956840000000    -0.509257   
O4       O      0.837100000000     0.334080000000     0.949770000000    -0.49509    
O5       O      0.901270000000     0.373410000000     0.805650000000    -0.501985   
O6       O      0.776360000000     0.352280000000     0.896910000000    -0.50055    
O7       O      0.925220000000     0.440980000000     0.896970000000    -0.50734    
O8       O      0.897600000000     0.312400000000     0.865070000000    -0.514219   
O9       O      0.132050000000     0.558820000000     0.156820000000    -0.515921   
O10      O      0.167840000000     0.628590000000     0.189340000000    -0.499801   
O11      O      0.171920000000     0.655900000000     0.071370000000    -0.49859    
O12      O      0.080930000000     0.602090000000     0.049200000000    -0.503      
O13      O      0.076880000000     0.668730000000     0.210300000000    -0.498049   
O14      O      0.031920000000     0.593350000000     0.115900000000    -0.505344   
O15      O      0.128800000000     0.725080000000     0.094650000000    -0.498799   
O16      O      0.045640000000     0.708680000000     0.142290000000    -0.49005    
O17      O      0.371270000000     0.941140000000     0.958870000000    -0.505363   
O18      O      0.427430000000     0.942200000000     0.898310000000    -0.501817   
O19      O      0.380090000000     0.868790000000     0.798580000000    -0.502113   
O20      O      0.325350000000     0.816590000000     0.915710000000    -0.495088   
O21      O      0.333570000000     0.979390000000     0.840400000000    -0.504547   
O22      O      0.285770000000     0.888410000000     0.937000000000    -0.505456   
O23      O      0.409420000000     0.828530000000     0.867310000000    -0.490866   
O24      O      0.284560000000     0.912020000000     0.826100000000    -0.502406   
O25      O      0.588060000000     0.086540000000     0.061020000000    -0.502753   
O26      O      0.530740000000     0.098880000000     0.118970000000    -0.518447   
O27      O      0.674970000000     0.123460000000     0.186260000000    -0.490647   
O28      O      0.682070000000     0.177760000000     0.106360000000    -0.496043   
O29      O      0.573260000000     0.162670000000     0.214430000000    -0.517479   
O30      O      0.617540000000     0.194470000000     0.059110000000    -0.50312    
O31      O      0.630390000000     0.055940000000     0.162150000000    -0.510497   
O32      O      0.562200000000     0.218760000000     0.151630000000    -0.509204   
O33      O      0.298440000000     0.381970000000     0.444940000000    -0.496079   
O34      O      0.315200000000     0.314010000000     0.394980000000    -0.497601   
O35      O      0.321170000000     0.474730000000     0.351030000000    -0.496883   
O36      O      0.412320000000     0.463780000000     0.394160000000    -0.496023   
O37      O      0.416080000000     0.326510000000     0.370800000000    -0.502551   
O38      O      0.390060000000     0.414620000000     0.460110000000    -0.495066   
O39      O      0.295490000000     0.401770000000     0.314020000000    -0.502444   
O40      O      0.401410000000     0.375050000000     0.302270000000    -0.503822   
O41      O      0.545270000000     0.573870000000     0.624510000000    -0.508375   
O42      O      0.562360000000     0.620830000000     0.555900000000    -0.501613   
O43      O      0.562030000000     0.668230000000     0.711220000000    -0.503764   
O44      O      0.659420000000     0.634860000000     0.701710000000    -0.499598   
O45      O      0.659320000000     0.651500000000     0.565990000000    -0.502117   
O46      O      0.641090000000     0.563860000000     0.656870000000    -0.499777   
O47      O      0.541740000000     0.710420000000     0.640720000000    -0.511765   
O48      O      0.644000000000     0.722520000000     0.611960000000    -0.501032   
O49      O      0.785780000000     0.896960000000     0.327190000000    -0.505275   
O50      O      0.835650000000     0.964780000000     0.333760000000    -0.501731   
O51      O      0.815920000000     0.807730000000     0.401620000000    -0.513026   
O52      O      0.915420000000     0.822480000000     0.372030000000    -0.501961   
O53      O      0.866140000000     0.961870000000     0.436400000000    -0.499856   
O54      O      0.893930000000     0.866130000000     0.302560000000    -0.503581   
O55      O      0.806140000000     0.872780000000     0.455850000000    -0.507158   
O56      O      0.930350000000     0.913210000000     0.419720000000    -0.503035   
O57      O      0.145130000000     0.223610000000     0.601790000000    -0.495887   
O58      O      0.151040000000     0.155640000000     0.550260000000    -0.512891   
O59      O      0.127320000000     0.069380000000     0.673190000000    -0.500751   
O60      O      0.059890000000     0.157300000000     0.704160000000    -0.502818   
O61      O      0.027120000000     0.128600000000     0.587230000000    -0.503214   
O62      O      0.055910000000     0.220160000000     0.645540000000    -0.490102   
O63      O      0.175530000000     0.138110000000     0.677710000000    -0.515623   
O64      O      0.086600000000     0.072130000000     0.572740000000    -0.492516   


