data_structure

_audit_creation_method RASPA-1.0
_audit_creation_date 2023-5-22
_audit_author_name 'Poobodin Mano'

_cell_length_a    25.433
_cell_length_b    25.4275
_cell_length_c    24.8727
_cell_angle_alpha 90
_cell_angle_beta  90
_cell_angle_gamma 90
_cell_volume      16085.1

_symmetry_cell_setting          triclinic
_symmetry_space_group_name_Hall 'P 1'
_symmetry_space_group_name_H-M  'P 1'
_symmetry_Int_Tables_number     1

_symmetry_equiv_pos_as_xyz 'x,y,z'

loop_
_atom_site_label
_atom_site_type_symbol
_atom_site_fract_x
_atom_site_fract_y
_atom_site_fract_z
_atom_site_charge
C1       C      0.933610000000     0.433250000000     0.944410000000     0.412868   
C2       C      0.933450000000     0.309490000000     0.820580000000     0.412691   
C3       C      0.810100000000     0.309240000000     0.944920000000     0.413053   
C4       C      0.809530000000     0.433000000000     0.820930000000     0.413241   
C5       C      0.059440000000     0.683390000000     0.194380000000     0.412953   
C6       C      0.183070000000     0.683870000000     0.070210000000     0.413001   
C7       C      0.183480000000     0.560130000000     0.194270000000     0.413059   
C8       C      0.059800000000     0.559730000000     0.070340000000     0.413021   
C9       C      0.433200000000     0.933800000000     0.944300000000     0.413102   
C10      C      0.309200000000     0.810150000000     0.944020000000     0.412998   
C11      C      0.309450000000     0.934000000000     0.820370000000     0.412809   
C12      C      0.433170000000     0.809950000000     0.820600000000     0.413046   
C13      C      0.683850000000     0.183100000000     0.071150000000     0.413065   
C14      C      0.559680000000     0.183390000000     0.194450000000     0.412955   
C15      C      0.559580000000     0.059590000000     0.070760000000     0.412904   
C16      C      0.683270000000     0.059090000000     0.194550000000     0.412916   
C17      C      0.309640000000     0.433810000000     0.320400000000     0.412936   
C18      C      0.433420000000     0.309820000000     0.320370000000     0.413106   
C19      C      0.433200000000     0.433480000000     0.444370000000     0.413059   
C20      C      0.309270000000     0.309810000000     0.443770000000     0.412989   
C21      C      0.683080000000     0.559140000000     0.694910000000     0.413078   
C22      C      0.559260000000     0.683170000000     0.694880000000     0.412966   
C23      C      0.683150000000     0.682960000000     0.571290000000     0.413033   
C24      C      0.559210000000     0.559350000000     0.571120000000     0.412813   
C25      C      0.933050000000     0.809070000000     0.320940000000     0.412825   
C26      C      0.932950000000     0.933000000000     0.444570000000     0.412933   
C27      C      0.809190000000     0.932630000000     0.320790000000     0.413246   
C28      C      0.809360000000     0.809020000000     0.444940000000     0.412962   
C29      C      0.059430000000     0.183490000000     0.693930000000     0.412762   
C30      C      0.182910000000     0.183600000000     0.569810000000     0.412983   
C31      C      0.183240000000     0.059950000000     0.693910000000     0.413009   
C32      C      0.059320000000     0.059560000000     0.570240000000     0.412946   
C33      C      0.971540000000     0.016180000000     0.462750000000     0.0324706  
C34      C      0.988710000000     0.944370000000     0.520280000000     0.0337219  
C35      C      0.020700000000     0.976390000000     0.552070000000     0.0324066  
C36      C      0.003520000000     0.048210000000     0.494550000000     0.0336971  
C37      C      0.738510000000     0.694130000000     0.495250000000     0.0337304  
C38      C      0.722170000000     0.765930000000     0.553040000000     0.0324688  
C39      C      0.754110000000     0.797830000000     0.521070000000     0.0337117  
C40      C      0.770460000000     0.726030000000     0.463280000000     0.0324136  
C41      C      0.253720000000     0.298570000000     0.519660000000     0.0337305  
C42      C      0.270230000000     0.226810000000     0.461860000000     0.0324422  
C43      C      0.238250000000     0.194870000000     0.493750000000     0.0336434  
C44      C      0.221730000000     0.266640000000     0.551540000000     0.0324557  
C45      C      0.488000000000     0.444670000000     0.520850000000     0.0337565  
C46      C      0.472460000000     0.516320000000     0.462630000000     0.0323885  
C47      C      0.504350000000     0.548170000000     0.494710000000     0.0337423  
C48      C      0.519880000000     0.476520000000     0.552940000000     0.0323742  
C49      C      0.798000000000     0.987870000000     0.244640000000     0.0337365  
C50      C      0.726240000000     0.971660000000     0.302520000000     0.0324148  
C51      C      0.694380000000     0.003670000000     0.270580000000     0.0336964  
C52      C      0.766140000000     0.019870000000     0.212700000000     0.0324035  
C53      C      0.548210000000     0.238330000000     0.270780000000     0.0336849  
C54      C      0.476880000000     0.222960000000     0.212120000000     0.0324325  
C55      C      0.444930000000     0.254950000000     0.243990000000     0.0337058  
C56      C      0.516260000000     0.270330000000     0.302640000000     0.0324424  
C57      C      0.298170000000     0.989110000000     0.744140000000     0.0336739  
C58      C      0.226520000000     0.973060000000     0.802200000000     0.0324374  
C59      C      0.194580000000     0.004930000000     0.770190000000     0.0336996  
C60      C      0.266230000000     0.020980000000     0.712130000000     0.0324554  
C61      C      0.444440000000     0.754470000000     0.744650000000     0.0337362  
C62      C      0.516090000000     0.770740000000     0.802640000000     0.0324291  
C63      C      0.547990000000     0.738640000000     0.770840000000     0.0337189  
C64      C      0.476340000000     0.722370000000     0.712850000000     0.0324145  
C65      C      0.488080000000     0.944990000000     0.020710000000     0.0336776  
C66      C      0.472700000000     0.016580000000     0.962370000000     0.0324662  
C67      C      0.504680000000     0.048410000000     0.994370000000     0.0336716  
C68      C      0.520060000000     0.976820000000     0.052710000000     0.0324338  
C69      C      0.976270000000     0.721790000000     0.212950000000     0.0323932  
C70      C      0.048170000000     0.738760000000     0.270420000000     0.0336942  
C71      C      0.016180000000     0.770560000000     0.302440000000     0.0324346  
C72      C      0.944290000000     0.753590000000     0.244980000000     0.0337513  
C73      C      0.221740000000     0.766970000000     0.051850000000     0.0324549  
C74      C      0.238430000000     0.695150000000     0.994180000000     0.0337025  
C75      C      0.270350000000     0.727110000000     0.962250000000     0.0324238  
C76      C      0.253660000000     0.798930000000     0.019930000000     0.0336949  
C77      C      0.266610000000     0.521590000000     0.212750000000     0.0324559  
C78      C      0.194650000000     0.504480000000     0.270090000000     0.0337093  
C79      C      0.226580000000     0.472510000000     0.302000000000     0.0324619  
C80      C      0.298530000000     0.489620000000     0.244660000000     0.0336966  
C81      C      0.944470000000     0.253940000000     0.744640000000     0.0336833  
C82      C      0.016530000000     0.270970000000     0.801880000000     0.0324378  
C83      C      0.048410000000     0.239080000000     0.769830000000     0.0337246  
C84      C      0.976350000000     0.222050000000     0.712590000000     0.0324233  
C85      C      0.755130000000     0.297900000000     0.021250000000     0.0336414  
C86      C      0.771050000000     0.226280000000     0.963100000000     0.0324519  
C87      C      0.739100000000     0.194360000000     0.995040000000     0.0337339  
C88      C      0.723190000000     0.265980000000     0.053190000000     0.0324455  
C89      C      0.726480000000     0.471930000000     0.802880000000     0.0324372  
C90      C      0.798080000000     0.488230000000     0.744830000000     0.0337385  
C91      C      0.766080000000     0.520150000000     0.712940000000     0.0324088  
C92      C      0.694480000000     0.503850000000     0.770990000000     0.0336916  
C93      C      0.972000000000     0.516480000000     0.962820000000     0.0323793  
C94      C      0.989600000000     0.444470000000     0.019970000000     0.0336781  
C95      C      0.021540000000     0.476480000000     0.051830000000     0.0324781  
C96      C      0.003940000000     0.548480000000     0.994690000000     0.0337759  
H1       H      0.952850000000     0.033530000000     0.427800000000     0.0442407  
H2       H      0.983950000000     0.903540000000     0.531920000000     0.0446239  
H3       H      0.039390000000     0.959050000000     0.587030000000     0.0442534  
H4       H      0.008290000000     0.089030000000     0.482910000000     0.0446225  
H5       H      0.733420000000     0.653360000000     0.483570000000     0.0446762  
H6       H      0.703830000000     0.783320000000     0.588180000000     0.0442284  
H7       H      0.759200000000     0.838610000000     0.532750000000     0.0446005  
H8       H      0.788790000000     0.708650000000     0.428150000000     0.0442543  
H9       H      0.258760000000     0.339340000000     0.531370000000     0.0446768  
H10      H      0.288650000000     0.209460000000     0.426770000000     0.044213   
H11      H      0.233210000000     0.154100000000     0.482050000000     0.0446119  
H12      H      0.203320000000     0.284000000000     0.586640000000     0.0442597  
H13      H      0.482590000000     0.403970000000     0.532670000000     0.0446229  
H14      H      0.454490000000     0.533660000000     0.427290000000     0.044257   
H15      H      0.509750000000     0.588870000000     0.482890000000     0.044646   
H16      H      0.537860000000     0.459190000000     0.588280000000     0.0442368  
H17      H      0.838750000000     0.982700000000     0.232920000000     0.0446327  
H18      H      0.708870000000     0.953370000000     0.337670000000     0.0442353  
H19      H      0.653640000000     0.008850000000     0.282300000000     0.0446517  
H20      H      0.783520000000     0.038170000000     0.177550000000     0.0442491  
H21      H      0.588810000000     0.232820000000     0.282850000000     0.0446338  
H22      H      0.459700000000     0.205010000000     0.176680000000     0.0442241  
H23      H      0.404320000000     0.260460000000     0.231910000000     0.044605   
H24      H      0.533430000000     0.288280000000     0.338080000000     0.0442228  
H25      H      0.338900000000     0.983920000000     0.732360000000     0.0446244  
H26      H      0.209210000000     0.954880000000     0.837440000000     0.0442472  
H27      H      0.153860000000     0.010120000000     0.781980000000     0.0446377  
H28      H      0.283530000000     0.039170000000     0.676880000000     0.0442285  
H29      H      0.403720000000     0.759640000000     0.732830000000     0.0446358  
H30      H      0.533410000000     0.789090000000     0.837790000000     0.0442303  
H31      H      0.588710000000     0.733470000000     0.782660000000     0.044624   
H32      H      0.459020000000     0.704020000000     0.677700000000     0.0442388  
H33      H      0.482590000000     0.904330000000     0.032610000000     0.0446426  
H34      H      0.454740000000     0.033900000000     0.927010000000     0.0442135  
H35      H      0.510180000000     0.089070000000     0.982480000000     0.04466    
H36      H      0.538020000000     0.959500000000     0.088070000000     0.0442349  
H37      H      0.958880000000     0.703250000000     0.177940000000     0.044268   
H38      H      0.089020000000     0.733980000000     0.281940000000     0.044625   
H39      H      0.033570000000     0.789100000000     0.337450000000     0.0442532  
H40      H      0.903440000000     0.758380000000     0.233450000000     0.0446393  
H41      H      0.203270000000     0.784340000000     0.086920000000     0.0442357  
H42      H      0.233480000000     0.654350000000     0.982540000000     0.0446085  
H43      H      0.288810000000     0.709740000000     0.927190000000     0.0442501  
H44      H      0.258610000000     0.839730000000     0.031580000000     0.0446672  
H45      H      0.284040000000     0.540240000000     0.177820000000     0.0442359  
H46      H      0.153810000000     0.509270000000     0.281610000000     0.0446407  
H47      H      0.209140000000     0.453850000000     0.336920000000     0.0442533  
H48      H      0.339380000000     0.484820000000     0.233140000000     0.0446517  
H49      H      0.903600000000     0.258730000000     0.733220000000     0.0446507  
H50      H      0.034030000000     0.289560000000     0.836810000000     0.0442629  
H51      H      0.089280000000     0.234290000000     0.781260000000     0.0446625  
H52      H      0.958860000000     0.203460000000     0.677670000000     0.0442499  
H53      H      0.760400000000     0.338610000000     0.033080000000     0.0446184  
H54      H      0.789210000000     0.208980000000     0.927830000000     0.0442516  
H55      H      0.733830000000     0.153650000000     0.983190000000     0.0446596  
H56      H      0.705020000000     0.283280000000     0.088450000000     0.0442175  
H57      H      0.709230000000     0.453620000000     0.838090000000     0.0442271  
H58      H      0.838800000000     0.483130000000     0.733000000000     0.0446206  
H59      H      0.783340000000     0.538460000000     0.677740000000     0.0442652  
H60      H      0.653760000000     0.508950000000     0.782810000000     0.044606   
H61      H      0.953160000000     0.533900000000     0.928000000000     0.0442623  
H62      H      0.985010000000     0.403580000000     0.031430000000     0.0446605  
H63      H      0.040380000000     0.459050000000     0.086650000000     0.0442527  
H64      H      0.008530000000     0.589380000000     0.983230000000     0.0446062  
In1      In     0.871640000000     0.371230000000     0.882740000000     2.40841    
In2      In     0.121470000000     0.621820000000     0.132280000000     2.40849    
In3      In     0.371270000000     0.872040000000     0.882300000000     2.40826    
In4      In     0.621590000000     0.121300000000     0.132750000000     2.40829    
In5      In     0.371440000000     0.371720000000     0.382190000000     2.40839    
In6      In     0.621150000000     0.621120000000     0.633120000000     2.40839    
In7      In     0.871100000000     0.870900000000     0.382840000000     2.40853    
In8      In     0.121250000000     0.121640000000     0.631910000000     2.40836    
N1       N      0.964250000000     0.964380000000     0.475730000000    -0.176511   
N2       N      0.027990000000     0.028200000000     0.539090000000    -0.176502   
N3       N      0.714470000000     0.714200000000     0.540010000000    -0.176531   
N4       N      0.778120000000     0.777770000000     0.476300000000    -0.176549   
N5       N      0.277870000000     0.278540000000     0.474950000000    -0.176474   
N6       N      0.214140000000     0.214900000000     0.538500000000    -0.176553   
N7       N      0.464410000000     0.464680000000     0.475820000000    -0.17654    
N8       N      0.527950000000     0.528160000000     0.539740000000    -0.176536   
N9       N      0.777950000000     0.963900000000     0.289450000000    -0.176544   
N10      N      0.714450000000     0.027680000000     0.225800000000    -0.176518   
N11      N      0.528400000000     0.214760000000     0.225640000000    -0.176537   
N12      N      0.464730000000     0.278510000000     0.289140000000    -0.17655    
N13      N      0.278190000000     0.965260000000     0.789050000000    -0.176538   
N14      N      0.214550000000     0.028770000000     0.725270000000    -0.176512   
N15      N      0.464420000000     0.778530000000     0.789440000000    -0.176549   
N16      N      0.528010000000     0.714580000000     0.726050000000    -0.176546   
N17      N      0.464510000000     0.964990000000     0.975650000000    -0.176543   
N18      N      0.528250000000     0.028410000000     0.039420000000    -0.176517   
N19      N      0.028100000000     0.714510000000     0.225780000000    -0.17649    
N20      N      0.964360000000     0.777870000000     0.289600000000    -0.176497   
N21      N      0.214260000000     0.715190000000     0.038880000000    -0.176561   
N22      N      0.277870000000     0.778880000000     0.975250000000    -0.176529   
N23      N      0.214780000000     0.528890000000     0.225570000000    -0.176533   
N24      N      0.278390000000     0.465180000000     0.289160000000    -0.176487   
N25      N      0.964680000000     0.278280000000     0.789170000000    -0.17647    
N26      N      0.028200000000     0.214740000000     0.725310000000    -0.176442   
N27      N      0.778920000000     0.277940000000     0.976290000000    -0.176546   
N28      N      0.715250000000     0.214330000000     0.039950000000    -0.176558   
N29      N      0.778170000000     0.464240000000     0.789690000000    -0.176567   
N30      N      0.714400000000     0.527850000000     0.726140000000    -0.176571   
N31      N      0.964930000000     0.464590000000     0.975590000000    -0.176458   
N32      N      0.028580000000     0.528370000000     0.039080000000    -0.17656    
O1       O      0.857410000000     0.424790000000     0.810440000000    -0.493574   
O2       O      0.793010000000     0.410080000000     0.862680000000    -0.500286   
O3       O      0.950260000000     0.332690000000     0.862050000000    -0.499948   
O4       O      0.925880000000     0.385200000000     0.954550000000    -0.493246   
O5       O      0.832800000000     0.292660000000     0.903080000000    -0.500302   
O6       O      0.910110000000     0.449970000000     0.903080000000    -0.500228   
O7       O      0.885420000000     0.317410000000     0.810540000000    -0.493116   
O8       O      0.818420000000     0.357130000000     0.955340000000    -0.493585   
O9       O      0.067460000000     0.607810000000     0.060280000000    -0.493276   
O10      O      0.083240000000     0.543020000000     0.111700000000    -0.500201   
O11      O      0.160020000000     0.700510000000     0.111840000000    -0.500219   
O12      O      0.107450000000     0.675510000000     0.204530000000    -0.493467   
O13      O      0.135470000000     0.567990000000     0.204410000000    -0.493518   
O14      O      0.042760000000     0.660250000000     0.152830000000    -0.500092   
O15      O      0.175050000000     0.635890000000     0.059960000000    -0.493598   
O16      O      0.200190000000     0.583380000000     0.152780000000    -0.500111   
O17      O      0.449770000000     0.832920000000     0.862280000000    -0.500331   
O18      O      0.385300000000     0.818290000000     0.810100000000    -0.493208   
O19      O      0.317350000000     0.858090000000     0.954370000000    -0.493059   
O20      O      0.424540000000     0.886000000000     0.954870000000    -0.493476   
O21      O      0.357320000000     0.925610000000     0.809920000000    -0.493176   
O22      O      0.410650000000     0.950410000000     0.902390000000    -0.500403   
O23      O      0.332320000000     0.793480000000     0.902460000000    -0.500165   
O24      O      0.292830000000     0.911180000000     0.862130000000    -0.500293   
O25      O      0.699970000000     0.082030000000     0.152890000000    -0.500369   
O26      O      0.635400000000     0.067490000000     0.204960000000    -0.493071   
O27      O      0.543220000000     0.160820000000     0.152480000000    -0.500342   
O28      O      0.661010000000     0.199700000000     0.112910000000    -0.500356   
O29      O      0.582140000000     0.042960000000     0.112670000000    -0.500128   
O30      O      0.675320000000     0.135280000000     0.060560000000    -0.493315   
O31      O      0.607420000000     0.174690000000     0.205220000000    -0.49325    
O32      O      0.568270000000     0.107380000000     0.060200000000    -0.4932     
O33      O      0.332360000000     0.293170000000     0.402170000000    -0.500198   
O34      O      0.317510000000     0.357710000000     0.454220000000    -0.493227   
O35      O      0.385670000000     0.318470000000     0.309630000000    -0.493583   
O36      O      0.292880000000     0.410510000000     0.361820000000    -0.500283   
O37      O      0.424650000000     0.385640000000     0.454820000000    -0.493406   
O38      O      0.357620000000     0.425820000000     0.310210000000    -0.493085   
O39      O      0.449870000000     0.332360000000     0.362360000000    -0.50042    
O40      O      0.410640000000     0.450120000000     0.402480000000    -0.500299   
O41      O      0.581820000000     0.542720000000     0.613010000000    -0.500067   
O42      O      0.567810000000     0.607180000000     0.560610000000    -0.493322   
O43      O      0.607130000000     0.674840000000     0.705360000000    -0.493274   
O44      O      0.635210000000     0.567430000000     0.705390000000    -0.493324   
O45      O      0.674880000000     0.635060000000     0.560920000000    -0.493247   
O46      O      0.699650000000     0.582080000000     0.653200000000    -0.500474   
O47      O      0.542650000000     0.660210000000     0.653190000000    -0.500353   
O48      O      0.660180000000     0.699640000000     0.612950000000    -0.500086   
O49      O      0.832280000000     0.792340000000     0.403260000000    -0.500286   
O50      O      0.817570000000     0.856960000000     0.455230000000    -0.493519   
O51      O      0.909650000000     0.949630000000     0.403080000000    -0.500183   
O52      O      0.949740000000     0.832260000000     0.362460000000    -0.500118   
O53      O      0.792540000000     0.909760000000     0.362510000000    -0.500267   
O54      O      0.885060000000     0.817020000000     0.310730000000    -0.493231   
O55      O      0.925070000000     0.885010000000     0.454850000000    -0.493283   
O56      O      0.857090000000     0.924370000000     0.310440000000    -0.49363    
O57      O      0.067220000000     0.107550000000     0.559940000000    -0.493337   
O58      O      0.082640000000     0.042930000000     0.611710000000    -0.500322   
O59      O      0.159930000000     0.200250000000     0.611470000000    -0.500314   
O60      O      0.107440000000     0.175550000000     0.704020000000    -0.493144   
O61      O      0.135360000000     0.068250000000     0.704350000000    -0.493552   
O62      O      0.042630000000     0.160260000000     0.652470000000    -0.499906   
O63      O      0.174790000000     0.135650000000     0.559520000000    -0.493392   
O64      O      0.199820000000     0.082740000000     0.652110000000    -0.50017    


