data_structure

_audit_creation_method RASPA-1.0
_audit_creation_date 2023-5-22
_audit_author_name 'Poobodin Mano'

_cell_length_a    24.6067
_cell_length_b    28.5394
_cell_length_c    22.2235
_cell_angle_alpha 90
_cell_angle_beta  90
_cell_angle_gamma 90
_cell_volume      15606.7

_symmetry_cell_setting          triclinic
_symmetry_space_group_name_Hall 'P 1'
_symmetry_space_group_name_H-M  'P 1'
_symmetry_Int_Tables_number     1

_symmetry_equiv_pos_as_xyz 'x,y,z'

loop_
_atom_site_label
_atom_site_type_symbol
_atom_site_fract_x
_atom_site_fract_y
_atom_site_fract_z
_atom_site_charge
C1       C      0.956140000000     0.383380000000     0.009630000000     0.440782   
C2       C      0.955230000000     0.259040000000     0.887750000000     0.412346   
C3       C      0.831900000000     0.260080000000     0.011980000000     0.439823   
C4       C      0.832010000000     0.383040000000     0.886340000000     0.41048    
C5       C      0.204740000000     0.509500000000     0.261950000000     0.440107   
C6       C      0.082230000000     0.509400000000     0.136600000000     0.411177   
C7       C      0.082170000000     0.633080000000     0.261210000000     0.411433   
C8       C      0.204900000000     0.633020000000     0.136120000000     0.440219   
C9       C      0.331470000000     0.759460000000     0.010420000000     0.411116   
C10      C      0.455200000000     0.759540000000     0.886720000000     0.410908   
C11      C      0.332540000000     0.883200000000     0.886230000000     0.439842   
C12      C      0.454610000000     0.883150000000     0.012050000000     0.439291   
C13      C      0.705270000000     0.133670000000     0.137680000000     0.412392   
C14      C      0.581660000000     0.133160000000     0.261440000000     0.410539   
C15      C      0.580780000000     0.010020000000     0.137550000000     0.410518   
C16      C      0.705840000000     0.009490000000     0.259600000000     0.440327   
C17      C      0.331050000000     0.383030000000     0.387940000000     0.413407   
C18      C      0.455790000000     0.259380000000     0.388380000000     0.439694   
C19      C      0.454690000000     0.382800000000     0.511790000000     0.413608   
C20      C      0.330250000000     0.259270000000     0.510180000000     0.440812   
C21      C      0.704870000000     0.633070000000     0.636360000000     0.413452   
C22      C      0.706410000000     0.509690000000     0.759770000000     0.440101   
C23      C      0.580890000000     0.633120000000     0.759880000000     0.441868   
C24      C      0.580830000000     0.509120000000     0.638230000000     0.442784   
C25      C      0.955950000000     0.759220000000     0.387820000000     0.443276   
C26      C      0.955680000000     0.883130000000     0.509580000000     0.442193   
C27      C      0.831680000000     0.882980000000     0.386090000000     0.413409   
C28      C      0.830440000000     0.759630000000     0.509600000000     0.440298   
C29      C      0.081670000000     0.132450000000     0.762130000000     0.440263   
C30      C      0.205470000000     0.009150000000     0.760350000000     0.411344   
C31      C      0.081540000000     0.009250000000     0.636700000000     0.410754   
C32      C      0.204220000000     0.133040000000     0.636910000000     0.410994   
C33      C      0.004720000000     0.959120000000     0.630200000000     0.0272051  
C34      C      0.064790000000     0.965330000000     0.547880000000    -0.0685471  
C35      C      0.973060000000     0.927250000000     0.597900000000     0.0548213  
C36      C      0.033180000000     0.933470000000     0.515410000000     0.384259   
C37      C      0.781010000000     0.683990000000     0.630390000000     0.0299579  
C38      C      0.721970000000     0.676620000000     0.547310000000    -0.0675769  
C39      C      0.812580000000     0.715980000000     0.598190000000     0.0552658  
C40      C      0.753480000000     0.708630000000     0.514960000000     0.381768   
C41      C      0.281070000000     0.183110000000     0.630510000000     0.0291429  
C42      C      0.220850000000     0.177260000000     0.548270000000    -0.0683212  
C43      C      0.312760000000     0.214990000000     0.598310000000     0.0561403  
C44      C      0.252530000000     0.209140000000     0.515880000000     0.382831   
C45      C      0.531030000000     0.433500000000     0.517650000000     0.0300445  
C46      C      0.472160000000     0.426190000000     0.600900000000    -0.0676124  
C47      C      0.562760000000     0.465390000000     0.549780000000     0.0567061  
C48      C      0.503860000000     0.458100000000     0.633200000000     0.384321   
C49      C      0.755320000000     0.933640000000     0.380110000000     0.0295138  
C50      C      0.814480000000     0.926590000000     0.297090000000    -0.0676635  
C51      C      0.723650000000     0.965580000000     0.347960000000     0.0546848  
C52      C      0.782890000000     0.958580000000     0.264800000000     0.381917   
C53      C      0.505240000000     0.183750000000     0.267610000000     0.0271512  
C54      C      0.564530000000     0.176680000000     0.350520000000    -0.0699918  
C55      C      0.473580000000     0.215630000000     0.299860000000     0.0540089  
C56      C      0.532940000000     0.208610000000     0.382920000000     0.380521   
C57      C      0.222720000000     0.964000000000     0.848040000000     0.0291346  
C58      C      0.283460000000     0.960350000000     0.766060000000    -0.0686228  
C59      C      0.254980000000     0.932190000000     0.879670000000     0.0557961  
C60      C      0.315850000000     0.928490000000     0.797610000000     0.381988   
C61      C      0.532230000000     0.709650000000     0.880130000000     0.0270456  
C62      C      0.471610000000     0.715140000000     0.798210000000    -0.0679599  
C63      C      0.563830000000     0.677700000000     0.847910000000     0.0543097  
C64      C      0.503160000000     0.683180000000     0.765830000000     0.384404   
C65      C      0.563290000000     0.965280000000     0.049580000000     0.0272992  
C66      C      0.503600000000     0.960210000000     0.132380000000    -0.069802   
C67      C      0.531320000000     0.933170000000     0.018100000000     0.0537835  
C68      C      0.471470000000     0.928080000000     0.100960000000     0.380775   
C69      C      0.004960000000     0.682710000000     0.267780000000     0.0296471  
C70      C      0.065640000000     0.677520000000     0.349680000000    -0.0666444  
C71      C      0.973230000000     0.714580000000     0.299930000000     0.0572457  
C72      C      0.033900000000     0.709360000000     0.382040000000     0.386003   
C73      C      0.314570000000     0.714000000000     0.097950000000     0.0286721  
C74      C      0.253590000000     0.710550000000     0.016180000000    -0.0685977  
C75      C      0.282460000000     0.682040000000     0.129520000000     0.0549315  
C76      C      0.221350000000     0.678550000000     0.047660000000     0.381946   
C77      C      0.313670000000     0.427700000000     0.299860000000     0.0285064  
C78      C      0.253860000000     0.432780000000     0.382550000000    -0.0668123  
C79      C      0.281640000000     0.459690000000     0.268230000000     0.0543301  
C80      C      0.221680000000     0.464770000000     0.350990000000     0.382938   
C81      C      0.972390000000     0.213910000000     0.800010000000     0.0285194  
C82      C      0.032530000000     0.209410000000     0.882460000000    -0.0669628  
C83      C      0.004470000000     0.181910000000     0.768450000000     0.054288   
C84      C      0.064730000000     0.177370000000     0.851000000000     0.3823     
C85      C      0.722940000000     0.178220000000     0.049570000000     0.026791   
C86      C      0.782250000000     0.183690000000     0.132660000000    -0.0683486  
C87      C      0.755050000000     0.210190000000     0.018010000000     0.0528416  
C88      C      0.814480000000     0.215700000000     0.101190000000     0.381141   
C89      C      0.755700000000     0.433750000000     0.880300000000     0.0267905  
C90      C      0.815050000000     0.426810000000     0.797420000000    -0.0691041  
C91      C      0.724150000000     0.465780000000     0.848170000000     0.0537786  
C92      C      0.783530000000     0.458860000000     0.765120000000     0.381407   
C93      C      0.004640000000     0.460240000000     0.129570000000     0.0293435  
C94      C      0.066160000000     0.464560000000     0.048370000000    -0.0675785  
C95      C      0.972920000000     0.428420000000     0.097310000000     0.0560676  
C96      C      0.034470000000     0.432730000000     0.015920000000     0.383622   
F1       F      0.049380000000     0.922140000000     0.458780000000    -0.41672    
F2       F      0.737770000000     0.719450000000     0.457990000000    -0.423432   
F3       F      0.236310000000     0.220670000000     0.459330000000    -0.420632   
F4       F      0.488340000000     0.468910000000     0.690230000000    -0.419223   
F5       F      0.798610000000     0.969540000000     0.207880000000    -0.422497   
F6       F      0.548730000000     0.219530000000     0.439820000000    -0.424709   
F7       F      0.361470000000     0.912140000000     0.770260000000    -0.4209     
F8       F      0.486660000000     0.671440000000     0.709440000000    -0.416333   
F9       F      0.426510000000     0.910880000000     0.128770000000    -0.42204    
F10      F      0.050330000000     0.721230000000     0.438410000000    -0.415406   
F11      F      0.175680000000     0.662250000000     0.020370000000    -0.420591   
F12      F      0.176630000000     0.481920000000     0.378700000000    -0.417638   
F13      F      0.109960000000     0.160510000000     0.878640000000    -0.420622   
F14      F      0.859310000000     0.233040000000     0.129150000000    -0.420234   
F15      F      0.799380000000     0.469910000000     0.708270000000    -0.421738   
F16      F      0.051350000000     0.420450000000     0.959870000000    -0.41907    
H1       H      0.937140000000     0.913130000000     0.619600000000     0.0517242  
H2       H      0.991990000000     0.968290000000     0.675420000000     0.0571312  
H3       H      0.100780000000     0.979580000000     0.526440000000     0.116327   
H4       H      0.848070000000     0.730600000000     0.620220000000     0.0557715  
H5       H      0.793360000000     0.675250000000     0.675870000000     0.0608425  
H6       H      0.686430000000     0.661850000000     0.525540000000     0.115341   
H7       H      0.348760000000     0.228960000000     0.620020000000     0.0565859  
H8       H      0.293850000000     0.173800000000     0.675660000000     0.0617866  
H9       H      0.184790000000     0.163140000000     0.526850000000     0.115043   
H10      H      0.598210000000     0.479970000000     0.527640000000     0.0568493  
H11      H      0.543240000000     0.424770000000     0.472120000000     0.0604007  
H12      H      0.436640000000     0.411470000000     0.622760000000     0.115137   
H13      H      0.688090000000     0.980060000000     0.370000000000     0.0544716  
H14      H      0.742940000000     0.924780000000     0.425550000000     0.0602874  
H15      H      0.850110000000     0.911960000000     0.275330000000     0.115841   
H16      H      0.437970000000     0.230100000000     0.277920000000     0.0545823  
H17      H      0.492820000000     0.174920000000     0.222190000000     0.0580683  
H18      H      0.600210000000     0.162080000000     0.372200000000     0.112276   
H19      H      0.242030000000     0.922100000000     0.924490000000     0.0565612  
H20      H      0.186270000000     0.977150000000     0.869670000000     0.0644447  
H21      H      0.296170000000     0.970590000000     0.721220000000     0.113393   
H22      H      0.599960000000     0.663840000000     0.869460000000     0.0511745  
H23      H      0.545200000000     0.719140000000     0.925150000000     0.0568517  
H24      H      0.435410000000     0.729130000000     0.776920000000     0.120082   
H25      H      0.543950000000     0.923550000000     0.973000000000     0.0529421  
H26      H      0.599210000000     0.979090000000     0.027570000000     0.0596692  
H27      H      0.491230000000     0.969980000000     0.177520000000     0.112348   
H28      H      0.937040000000     0.728290000000     0.278350000000     0.0564839  
H29      H      0.992020000000     0.673140000000     0.222780000000     0.0610446  
H30      H      0.101900000000     0.663670000000     0.370980000000     0.120452   
H31      H      0.295540000000     0.671800000000     0.174230000000     0.0540097  
H32      H      0.351060000000     0.727120000000     0.119510000000     0.0633827  
H33      H      0.240730000000     0.720930000000     0.971440000000     0.114076   
H34      H      0.294290000000     0.469270000000     0.223130000000     0.0520595  
H35      H      0.349670000000     0.413920000000     0.277950000000     0.0580418  
H36      H      0.241450000000     0.423060000000     0.427690000000     0.117332   
H37      H      0.991720000000     0.172100000000     0.723470000000     0.05221    
H38      H      0.936260000000     0.227480000000     0.778160000000     0.059728   
H39      H      0.045060000000     0.219380000000     0.927470000000     0.118204   
H40      H      0.742650000000     0.219590000000     0.972770000000     0.0498611  
H41      H      0.687120000000     0.164280000000     0.027470000000     0.0570147  
H42      H      0.794430000000     0.174120000000     0.177930000000     0.11526    
H43      H      0.688550000000     0.480240000000     0.870150000000     0.0530683  
H44      H      0.743220000000     0.424830000000     0.925680000000     0.0566024  
H45      H      0.850710000000     0.412210000000     0.775720000000     0.115682   
H46      H      0.936380000000     0.415080000000     0.118570000000     0.0576429  
H47      H      0.991340000000     0.470150000000     0.174330000000     0.0620312  
H48      H      0.102760000000     0.478040000000     0.027380000000     0.11849    
In1      In     0.893550000000     0.321390000000     0.948840000000     2.43822    
In2      In     0.143600000000     0.571240000000     0.198940000000     2.43883    
In3      In     0.393630000000     0.821290000000     0.949010000000     2.43765    
In4      In     0.643280000000     0.071610000000     0.198940000000     2.43462    
In5      In     0.393050000000     0.321150000000     0.449450000000     2.43926    
In6      In     0.643430000000     0.571280000000     0.698730000000     2.44255    
In7      In     0.893250000000     0.821250000000     0.448390000000     2.44331    
In8      In     0.143100000000     0.070930000000     0.699090000000     2.43518    
N1       N      0.050470000000     0.978040000000     0.605080000000    -0.151551   
N2       N      0.987250000000     0.914450000000     0.540610000000    -0.22182    
N3       N      0.735830000000     0.664410000000     0.604830000000    -0.15082    
N4       N      0.798870000000     0.728270000000     0.540560000000    -0.221904   
N5       N      0.235230000000     0.164350000000     0.605380000000    -0.151001   
N6       N      0.298560000000     0.227970000000     0.541090000000    -0.221591   
N7       N      0.485830000000     0.414020000000     0.543300000000    -0.151113   
N8       N      0.549200000000     0.477700000000     0.607440000000    -0.220955   
N9       N      0.800620000000     0.914260000000     0.354570000000    -0.150914   
N10      N      0.737410000000     0.978050000000     0.290420000000    -0.2222     
N11      N      0.550600000000     0.164380000000     0.293050000000    -0.152126   
N12      N      0.487390000000     0.228050000000     0.357410000000    -0.222283   
N13      N      0.237070000000     0.977960000000     0.791350000000    -0.150996   
N14      N      0.301450000000     0.914450000000     0.854510000000    -0.221775   
N15      N      0.486230000000     0.728260000000     0.855170000000    -0.150942   
N16      N      0.549340000000     0.664490000000     0.790850000000    -0.222094   
N17      N      0.549340000000     0.978670000000     0.106620000000    -0.151807   
N18      N      0.485490000000     0.914590000000     0.043720000000    -0.222386   
N19      N      0.051060000000     0.664300000000     0.292740000000    -0.150099   
N20      N      0.987640000000     0.727880000000     0.356970000000    -0.220909   
N21      N      0.300020000000     0.728150000000     0.041400000000    -0.150945   
N22      N      0.235930000000     0.664340000000     0.104430000000    -0.222379   
N23      N      0.299680000000     0.414360000000     0.356910000000    -0.1512     
N24      N      0.235710000000     0.478190000000     0.293720000000    -0.22201    
N25      N      0.986560000000     0.227580000000     0.856870000000    -0.150523   
N26      N      0.050590000000     0.163700000000     0.793870000000    -0.222566   
N27      N      0.736670000000     0.165060000000     0.106770000000    -0.151707   
N28      N      0.800770000000     0.228870000000     0.043740000000    -0.22283    
N29      N      0.801040000000     0.414370000000     0.854820000000    -0.151785   
N30      N      0.738000000000     0.478300000000     0.790660000000    -0.222283   
N31      N      0.051150000000     0.478190000000     0.105000000000    -0.150464   
N32      N      0.987790000000     0.414680000000     0.040580000000    -0.22146    
O1       O      0.874270000000     0.364350000000     0.864820000000    -0.477336   
O2       O      0.820730000000     0.370480000000     0.939390000000    -0.492307   
O3       O      0.966740000000     0.272730000000     0.940270000000    -0.47668    
O4       O      0.967410000000     0.369340000000     0.957240000000    -0.450894   
O5       O      0.820370000000     0.272750000000     0.959040000000    -0.500947   
O6       O      0.913130000000     0.366060000000     0.031290000000    -0.484714   
O7       O      0.912520000000     0.276850000000     0.866050000000    -0.482566   
O8       O      0.874500000000     0.278520000000     0.032940000000    -0.44781    
O9       O      0.161620000000     0.615400000000     0.115680000000    -0.448367   
O10      O      0.217250000000     0.619320000000     0.188410000000    -0.496249   
O11      O      0.125500000000     0.526850000000     0.115850000000    -0.474213   
O12      O      0.161850000000     0.527650000000     0.282630000000    -0.446647   
O13      O      0.070160000000     0.619570000000     0.208760000000    -0.484741   
O14      O      0.216770000000     0.522630000000     0.209320000000    -0.496757   
O15      O      0.069950000000     0.523170000000     0.188870000000    -0.484391   
O16      O      0.125210000000     0.615360000000     0.282200000000    -0.472223   
O17      O      0.411780000000     0.864920000000     0.032760000000    -0.448684   
O18      O      0.466670000000     0.869980000000     0.959450000000    -0.495146   
O19      O      0.412380000000     0.777530000000     0.865590000000    -0.473263   
O20      O      0.319680000000     0.773520000000     0.958150000000    -0.484642   
O21      O      0.320280000000     0.869650000000     0.938620000000    -0.491583   
O22      O      0.374660000000     0.776670000000     0.031740000000    -0.477847   
O23      O      0.467020000000     0.772780000000     0.939340000000    -0.490411   
O24      O      0.375710000000     0.865430000000     0.865700000000    -0.446955   
O25      O      0.663730000000     0.027860000000     0.281960000000    -0.490273   
O26      O      0.716280000000     0.022610000000     0.206600000000    -0.453851   
O27      O      0.570530000000     0.120800000000     0.208280000000    -0.492028   
O28      O      0.716370000000     0.120440000000     0.190500000000    -0.483391   
O29      O      0.569780000000     0.023200000000     0.190410000000    -0.488059   
O30      O      0.662860000000     0.115510000000     0.115750000000    -0.485266   
O31      O      0.623840000000     0.114380000000     0.283040000000    -0.481146   
O32      O      0.623260000000     0.028060000000     0.115630000000    -0.481511   
O33      O      0.319680000000     0.272550000000     0.457270000000    -0.452298   
O34      O      0.372620000000     0.277310000000     0.532370000000    -0.48584    
O35      O      0.413640000000     0.277770000000     0.366110000000    -0.488121   
O36      O      0.373550000000     0.364930000000     0.366140000000    -0.484362   
O37      O      0.412610000000     0.363950000000     0.533520000000    -0.478656   
O38      O      0.319870000000     0.369840000000     0.440750000000    -0.481945   
O39      O      0.466190000000     0.272330000000     0.441450000000    -0.455285   
O40      O      0.465670000000     0.370480000000     0.458580000000    -0.488512   
O41      O      0.622690000000     0.527750000000     0.615630000000    -0.484258   
O42      O      0.570690000000     0.521970000000     0.691410000000    -0.449384   
O43      O      0.716680000000     0.522560000000     0.706640000000    -0.454872   
O44      O      0.715930000000     0.620780000000     0.689560000000    -0.487554   
O45      O      0.569950000000     0.619620000000     0.707170000000    -0.449404   
O46      O      0.662860000000     0.614080000000     0.614650000000    -0.475001   
O47      O      0.664330000000     0.528120000000     0.782130000000    -0.489233   
O48      O      0.623520000000     0.615270000000     0.781760000000    -0.492375   
O49      O      0.872480000000     0.778160000000     0.531930000000    -0.487476   
O50      O      0.820160000000     0.772400000000     0.456430000000    -0.455586   
O51      O      0.966380000000     0.869970000000     0.456670000000    -0.448704   
O52      O      0.966650000000     0.772710000000     0.440600000000    -0.447815   
O53      O      0.820650000000     0.870630000000     0.439270000000    -0.488396   
O54      O      0.913480000000     0.777120000000     0.365670000000    -0.484968   
O55      O      0.913320000000     0.864940000000     0.531640000000    -0.491484   
O56      O      0.873760000000     0.864110000000     0.364370000000    -0.475191   
O57      O      0.216020000000     0.119860000000     0.689560000000    -0.484705   
O58      O      0.161530000000     0.114870000000     0.615680000000    -0.479459   
O59      O      0.162330000000     0.026370000000     0.781770000000    -0.477418   
O60      O      0.124630000000     0.114430000000     0.782810000000    -0.448832   
O61      O      0.124140000000     0.027520000000     0.615420000000    -0.479794   
O62      O      0.069700000000     0.119280000000     0.709510000000    -0.498264   
O63      O      0.217090000000     0.023130000000     0.708000000000    -0.485586   
O64      O      0.069960000000     0.022150000000     0.689530000000    -0.490636   


