data_structure

_audit_creation_method RASPA-1.0
_audit_creation_date 2023-5-22
_audit_author_name 'Poobodin Mano'

_cell_length_a    23.5815
_cell_length_b    28.5352
_cell_length_c    23.4294
_cell_angle_alpha 90
_cell_angle_beta  90
_cell_angle_gamma 90
_cell_volume      15765.7

_symmetry_cell_setting          triclinic
_symmetry_space_group_name_Hall 'P 1'
_symmetry_space_group_name_H-M  'P 1'
_symmetry_Int_Tables_number     1

_symmetry_equiv_pos_as_xyz 'x,y,z'

loop_
_atom_site_label
_atom_site_type_symbol
_atom_site_fract_x
_atom_site_fract_y
_atom_site_fract_z
_atom_site_charge
C1       C      0.975890000000     0.380280000000     0.968560000000     0.412124   
C2       C      0.849490000000     0.380260000000     0.848780000000     0.411998   
C3       C      0.977400000000     0.256810000000     0.848750000000     0.413135   
C4       C      0.847970000000     0.256860000000     0.967760000000     0.413747   
C5       C      0.102260000000     0.507280000000     0.094230000000     0.413785   
C6       C      0.226040000000     0.630450000000     0.100630000000     0.413738   
C7       C      0.097480000000     0.630170000000     0.219520000000     0.411451   
C8       C      0.220980000000     0.506690000000     0.223160000000     0.411392   
C9       C      0.351300000000     0.757750000000     0.974320000000     0.411506   
C10      C      0.470540000000     0.883030000000     0.974050000000     0.410834   
C11      C      0.475110000000     0.758370000000     0.851240000000     0.411494   
C12      C      0.351280000000     0.879680000000     0.845620000000     0.41316    
C13      C      0.721520000000     0.131970000000     0.096420000000     0.410235   
C14      C      0.595590000000     0.009960000000     0.101110000000     0.413058   
C15      C      0.723440000000     0.008350000000     0.219860000000     0.411197   
C16      C      0.602570000000     0.133960000000     0.224420000000     0.413806   
C17      C      0.346210000000     0.380990000000     0.351880000000     0.413448   
C18      C      0.475280000000     0.260190000000     0.350270000000     0.410441   
C19      C      0.470890000000     0.383150000000     0.474220000000     0.411053   
C20      C      0.352560000000     0.256580000000     0.474530000000     0.414182   
C21      C      0.721340000000     0.507350000000     0.725180000000     0.415146   
C22      C      0.603290000000     0.632940000000     0.725230000000     0.415041   
C23      C      0.726480000000     0.629950000000     0.600050000000     0.41437    
C24      C      0.596590000000     0.509340000000     0.601740000000     0.414592   
C25      C      0.969380000000     0.756890000000     0.343840000000     0.414433   
C26      C      0.969620000000     0.880290000000     0.472670000000     0.413767   
C27      C      0.850160000000     0.880400000000     0.343720000000     0.413662   
C28      C      0.850320000000     0.756540000000     0.471260000000     0.411918   
C29      C      0.101850000000     0.129720000000     0.721300000000     0.410194   
C30      C      0.223500000000     0.004650000000     0.718460000000     0.41016    
C31      C      0.097620000000     0.006560000000     0.597800000000     0.410443   
C32      C      0.225110000000     0.128850000000     0.597950000000     0.41072    
C33      C      0.082160000000     0.961270000000     0.514290000000     0.035167   
C34      C      0.016150000000     0.958080000000     0.589690000000     0.0300994  
C35      C      0.049590000000     0.929380000000     0.483320000000     0.0331955  
C36      C      0.983070000000     0.926030000000     0.558840000000     0.0515728  
C37      C      0.931770000000     0.909350000000     0.586080000000     0.0681202  
C38      C      0.765370000000     0.714670000000     0.489980000000     0.036155   
C39      C      0.845070000000     0.703420000000     0.549070000000     0.031367   
C40      C      0.734720000000     0.682670000000     0.522720000000     0.0336706  
C41      C      0.814620000000     0.671160000000     0.582230000000     0.0520341  
C42      C      0.844390000000     0.649970000000     0.629730000000     0.0697874  
C43      C      0.237690000000     0.178330000000     0.517500000000     0.035444   
C44      C      0.309300000000     0.173620000000     0.587420000000     0.0305539  
C45      C      0.270270000000     0.210440000000     0.486860000000     0.0341372  
C46      C      0.342350000000     0.205890000000     0.556920000000     0.0521657  
C47      C      0.396900000000     0.218060000000     0.581150000000     0.0695469  
C48      C      0.549360000000     0.434550000000     0.484530000000     0.0358095  
C49      C      0.483730000000     0.426490000000     0.559730000000     0.0314282  
C50      C      0.580580000000     0.466290000000     0.517110000000     0.0336263  
C51      C      0.514830000000     0.458370000000     0.592810000000     0.0522205  
C52      C      0.493040000000     0.468740000000     0.649210000000     0.0703587  
C53      C      0.738240000000     0.962180000000     0.302770000000     0.036322   
C54      C      0.804040000000     0.958820000000     0.227180000000     0.0308191  
C55      C      0.770500000000     0.929870000000     0.333420000000     0.0341027  
C56      C      0.836780000000     0.926320000000     0.257700000000     0.0522548  
C57      C      0.887650000000     0.909160000000     0.230090000000     0.0695244  
C58      C      0.487200000000     0.210750000000     0.269730000000     0.0354845  
C59      C      0.560270000000     0.216710000000     0.337950000000     0.0303833  
C60      C      0.519730000000     0.179030000000     0.238470000000     0.034014   
C61      C      0.593270000000     0.184760000000     0.306850000000     0.0519505  
C62      C      0.648620000000     0.173450000000     0.329800000000     0.068429   
C63      C      0.238750000000     0.960140000000     0.802610000000     0.0353338  
C64      C      0.303900000000     0.955010000000     0.726600000000     0.0302955  
C65      C      0.271340000000     0.928660000000     0.834140000000     0.0333273  
C66      C      0.336970000000     0.923320000000     0.758000000000     0.0516214  
C67      C      0.387720000000     0.905660000000     0.730640000000     0.068383   
C68      C      0.486520000000     0.707730000000     0.771760000000     0.0371074  
C69      C      0.560850000000     0.716110000000     0.838200000000     0.0318086  
C70      C      0.519330000000     0.676310000000     0.740360000000     0.0352745  
C71      C      0.594140000000     0.684470000000     0.806970000000     0.053214   
C72      C      0.650180000000     0.674410000000     0.829070000000     0.0721923  
C73      C      0.550460000000     0.932590000000     0.985650000000     0.0356262  
C74      C      0.481310000000     0.928730000000     0.058100000000     0.030343   
C75      C      0.581490000000     0.964520000000     0.018080000000     0.0337029  
C76      C      0.512250000000     0.960840000000     0.091060000000     0.0516815  
C77      C      0.488490000000     0.973700000000     0.145860000000     0.0680502  
C78      C      0.086420000000     0.682180000000     0.297740000000     0.0354462  
C79      C      0.011600000000     0.672400000000     0.232160000000     0.0305098  
C80      C      0.053760000000     0.714110000000     0.328530000000     0.0339168  
C81      C      0.978370000000     0.704430000000     0.262910000000     0.0522563  
C82      C      0.922180000000     0.714060000000     0.240930000000     0.0696467  
C83      C      0.267370000000     0.713680000000     0.989820000000     0.0359206  
C84      C      0.343690000000     0.706950000000     0.054230000000     0.0307252  
C85      C      0.236330000000     0.681580000000     0.022020000000     0.0345396  
C86      C      0.312820000000     0.674600000000     0.086860000000     0.0522037  
C87      C      0.340490000000     0.655920000000     0.137140000000     0.0690817  
C88      C      0.300320000000     0.456460000000     0.234830000000     0.0361631  
C89      C      0.232850000000     0.462980000000     0.308590000000     0.0305481  
C90      C      0.331420000000     0.424870000000     0.267710000000     0.0337814  
C91      C      0.263800000000     0.431150000000     0.341940000000     0.0516813  
C92      C      0.241030000000     0.420020000000     0.397720000000     0.0678918  
C93      C      0.020410000000     0.177350000000     0.734530000000     0.0355379  
C94      C      0.092500000000     0.177000000000     0.804160000000     0.0302982  
C95      C      0.989550000000     0.209350000000     0.767050000000     0.0332828  
C96      C      0.061810000000     0.209240000000     0.837150000000     0.0516969  
C97      C      0.087340000000     0.224090000000     0.890380000000     0.0680596  
C98      C      0.804600000000     0.177260000000     0.081640000000     0.035424   
C99      C      0.730950000000     0.179490000000     0.013720000000     0.0301924  
C100     C      0.835950000000     0.208710000000     0.048840000000     0.033463   
C101     C      0.762210000000     0.211120000000     0.980390000000     0.051724   
C102     C      0.736170000000     0.227060000000     0.927890000000     0.0682573  
C103     C      0.830290000000     0.422020000000     0.763340000000     0.0367085  
C104     C      0.771800000000     0.433000000000     0.843780000000     0.0321032  
C105     C      0.797610000000     0.454050000000     0.732710000000     0.0352353  
C106     C      0.738740000000     0.465310000000     0.813360000000     0.0532416  
C107     C      0.691560000000     0.486350000000     0.843530000000     0.0727926  
C108     C      0.993450000000     0.422510000000     0.053960000000     0.0359499  
C109     C      0.053810000000     0.432800000000     0.974800000000     0.0313717  
C110     C      0.025580000000     0.454590000000     0.085050000000     0.03379    
C111     C      0.086430000000     0.465110000000     0.005770000000     0.0520372  
C112     C      0.134380000000     0.485850000000     0.976570000000     0.0694238  
H1       H      0.064930000000     0.919320000000     0.441440000000     0.0489705  
H2       H      0.120950000000     0.974240000000     0.495070000000     0.0474069  
H3       H      0.001930000000     0.968820000000     0.631820000000     0.0515146  
H4       H      0.691190000000     0.675860000000     0.510300000000     0.0485457  
H5       H      0.744270000000     0.731000000000     0.453970000000     0.0485689  
H6       H      0.888800000000     0.710960000000     0.560450000000     0.0523881  
H7       H      0.252630000000     0.223860000000     0.447350000000     0.0491757  
H8       H      0.196660000000     0.168450000000     0.500400000000     0.0473911  
H9       H      0.325840000000     0.159550000000     0.627170000000     0.0522988  
H10      H      0.618570000000     0.480920000000     0.498030000000     0.0481824  
H11      H      0.564540000000     0.426150000000     0.442050000000     0.0473567  
H12      H      0.445470000000     0.411240000000     0.577700000000     0.054283   
H13      H      0.755160000000     0.919740000000     0.375280000000     0.0500489  
H14      H      0.699680000000     0.975400000000     0.322190000000     0.0494753  
H15      H      0.818270000000     0.969630000000     0.185080000000     0.0518323  
H16      H      0.501460000000     0.165260000000     0.199430000000     0.0496996  
H17      H      0.445590000000     0.219980000000     0.253510000000     0.0476049  
H18      H      0.577390000000     0.231130000000     0.377260000000     0.0524215  
H19      H      0.256360000000     0.919530000000     0.876480000000     0.0485521  
H20      H      0.200340000000     0.973800000000     0.821890000000     0.0477517  
H21      H      0.317790000000     0.964840000000     0.684030000000     0.0517347  
H22      H      0.500650000000     0.661650000000     0.702000000000     0.0503597  
H23      H      0.444310000000     0.715900000000     0.756290000000     0.0491791  
H24      H      0.578380000000     0.731390000000     0.876850000000     0.0529418  
H25      H      0.620840000000     0.977470000000     0.000030000000     0.0492765  
H26      H      0.567160000000     0.922430000000     0.944330000000     0.0487214  
H27      H      0.441690000000     0.915100000000     0.074980000000     0.0514217  
H28      H      0.072690000000     0.729480000000     0.366340000000     0.0489111  
H29      H      0.128820000000     0.674460000000     0.313030000000     0.0479111  
H30      H      0.993860000000     0.656430000000     0.194030000000     0.0519207  
H31      H      0.194050000000     0.672870000000     0.007190000000     0.0503169  
H32      H      0.247800000000     0.728200000000     0.951850000000     0.0481456  
H33      H      0.386190000000     0.716380000000     0.067970000000     0.0519975  
H34      H      0.370120000000     0.410940000000     0.249290000000     0.0490805  
H35      H      0.316310000000     0.465450000000     0.192830000000     0.0495019  
H36      H      0.193900000000     0.477570000000     0.325860000000     0.0514968  
H37      H      0.949050000000     0.220900000000     0.750220000000     0.0495515  
H38      H      0.002470000000     0.165720000000     0.694320000000     0.0475383  
H39      H      0.133250000000     0.164780000000     0.819880000000     0.0519516  
H40      H      0.877260000000     0.219010000000     0.064900000000     0.0492851  
H41      H      0.822980000000     0.164810000000     0.121280000000     0.0482047  
H42      H      0.689400000000     0.168500000000     0.998810000000     0.051826   
H43      H      0.809840000000     0.461000000000     0.688890000000     0.0498192  
H44      H      0.866030000000     0.405780000000     0.741940000000     0.0485513  
H45      H      0.760620000000     0.425320000000     0.887790000000     0.0529098  
H46      H      0.012370000000     0.461810000000     0.128520000000     0.0484873  
H47      H      0.957130000000     0.406560000000     0.074690000000     0.0479227  
H48      H      0.065910000000     0.424830000000     0.931120000000     0.0525328  
In1      In     0.912880000000     0.318380000000     0.908410000000     2.42854    
In2      In     0.161370000000     0.568620000000     0.159610000000     2.42695    
In3      In     0.411740000000     0.819770000000     0.911650000000     2.42528    
In4      In     0.660880000000     0.071100000000     0.160470000000     2.42731    
In5      In     0.411270000000     0.320240000000     0.412160000000     2.42738    
In6      In     0.661930000000     0.569920000000     0.661980000000     2.43508    
In7      In     0.909870000000     0.818720000000     0.408070000000     2.43054    
In8      In     0.161680000000     0.067440000000     0.658470000000     2.42098    
N1       N      0.065410000000     0.975470000000     0.567350000000    -0.175082   
N2       N      0.000080000000     0.911610000000     0.505170000000    -0.176127   
N3       N      0.883790000000     0.893820000000     0.611820000000    -0.0861715  
N4       N      0.820350000000     0.725010000000     0.503290000000    -0.17461    
N5       N      0.758880000000     0.660870000000     0.568910000000    -0.175999   
N6       N      0.872490000000     0.630200000000     0.674150000000    -0.0848323  
N7       N      0.257230000000     0.160110000000     0.567690000000    -0.174962   
N8       N      0.322460000000     0.224500000000     0.506250000000    -0.175751   
N9       N      0.447950000000     0.229320000000     0.604050000000    -0.0849684  
N10      N      0.501190000000     0.414660000000     0.505980000000    -0.174421   
N11      N      0.563810000000     0.478270000000     0.571250000000    -0.176136   
N12      N      0.472420000000     0.478320000000     0.701990000000    -0.0838021  
N13      N      0.755120000000     0.976580000000     0.249830000000    -0.174591   
N14      N      0.819810000000     0.911890000000     0.311370000000    -0.175619   
N15      N      0.935220000000     0.893150000000     0.204010000000    -0.0857323  
N16      N      0.507480000000     0.229400000000     0.319380000000    -0.174891   
N17      N      0.572610000000     0.165720000000     0.256740000000    -0.175834   
N18      N      0.700430000000     0.163000000000     0.351500000000    -0.0865347  
N19      N      0.255200000000     0.973330000000     0.749070000000    -0.174825   
N20      N      0.320520000000     0.910240000000     0.812350000000    -0.175999   
N21      N      0.435200000000     0.889210000000     0.704790000000    -0.0863262  
N22      N      0.507350000000     0.727500000000     0.820530000000    -0.17433    
N23      N      0.573030000000     0.664430000000     0.757630000000    -0.175125   
N24      N      0.702630000000     0.665080000000     0.849990000000    -0.0826937  
N25      N      0.500600000000     0.914710000000     0.005780000000    -0.174891   
N26      N      0.562880000000     0.978710000000     0.070800000000    -0.175877   
N27      N      0.466020000000     0.985630000000     0.197140000000    -0.0867074  
N28      N      0.065280000000     0.661440000000     0.249710000000    -0.175065   
N29      N      0.999770000000     0.725360000000     0.311570000000    -0.175706   
N30      N      0.869590000000     0.722980000000     0.220130000000    -0.0852873  
N31      N      0.320890000000     0.726270000000     0.006000000000    -0.174985   
N32      N      0.258630000000     0.661900000000     0.070500000000    -0.175451   
N33      N      0.366630000000     0.638520000000     0.184160000000    -0.0862694  
N34      N      0.251250000000     0.475480000000     0.255380000000    -0.174619   
N35      N      0.313600000000     0.412080000000     0.321220000000    -0.176082   
N36      N      0.219490000000     0.409710000000     0.449930000000    -0.0864853  
N37      N      0.071690000000     0.161230000000     0.753190000000    -0.174924   
N38      N      0.009810000000     0.225420000000     0.818340000000    -0.175922   
N39      N      0.111470000000     0.237900000000     0.940170000000    -0.0867984  
N40      N      0.752230000000     0.162780000000     0.064050000000    -0.174821   
N41      N      0.815180000000     0.225810000000     0.998270000000    -0.176124   
N42      N      0.711560000000     0.241900000000     0.878770000000    -0.0858126  
N43      N      0.817330000000     0.411620000000     0.818720000000    -0.174406   
N44      N      0.751890000000     0.475860000000     0.757310000000    -0.175087   
N45      N      0.647470000000     0.506010000000     0.872000000000    -0.0824456  
N46      N      0.007620000000     0.411720000000     0.998990000000    -0.174639   
N47      N      0.072070000000     0.476000000000     0.061420000000    -0.175902   
N48      N      0.179220000000     0.505200000000     0.948990000000    -0.0851159  
O1       O      0.833060000000     0.274290000000     0.920630000000    -0.492755   
O2       O      0.896010000000     0.270590000000     0.984780000000    -0.493858   
O3       O      0.892110000000     0.359800000000     0.827640000000    -0.491473   
O4       O      0.987040000000     0.369320000000     0.917550000000    -0.496219   
O5       O      0.929920000000     0.271470000000     0.831260000000    -0.493233   
O6       O      0.932990000000     0.359900000000     0.989190000000    -0.493007   
O7       O      0.838980000000     0.369430000000     0.899960000000    -0.49663    
O8       O      0.992020000000     0.273480000000     0.896390000000    -0.493377   
O9       O      0.236130000000     0.519080000000     0.173710000000    -0.492375   
O10      O      0.175710000000     0.525580000000     0.240500000000    -0.495083   
O11      O      0.176490000000     0.619050000000     0.085440000000    -0.49319    
O12      O      0.146090000000     0.528280000000     0.076920000000    -0.489573   
O13      O      0.147110000000     0.618780000000     0.234240000000    -0.495564   
O14      O      0.088380000000     0.517460000000     0.144820000000    -0.497423   
O15      O      0.242590000000     0.610410000000     0.145650000000    -0.489468   
O16      O      0.080060000000     0.610380000000     0.174620000000    -0.495781   
O17      O      0.335780000000     0.867620000000     0.895110000000    -0.495679   
O18      O      0.397360000000     0.861350000000     0.829850000000    -0.491123   
O19      O      0.424360000000     0.865350000000     0.990820000000    -0.495779   
O20      O      0.400810000000     0.770560000000     0.987650000000    -0.496911   
O21      O      0.425380000000     0.769780000000     0.836800000000    -0.493069   
O22      O      0.332210000000     0.776350000000     0.929340000000    -0.49451    
O23      O      0.486900000000     0.868850000000     0.925730000000    -0.49344    
O24      O      0.492710000000     0.777890000000     0.896260000000    -0.492598   
O25      O      0.583620000000     0.117090000000     0.178350000000    -0.494489   
O26      O      0.651030000000     0.118860000000     0.237930000000    -0.49075    
O27      O      0.641740000000     0.026210000000     0.082150000000    -0.495693   
O28      O      0.672870000000     0.117660000000     0.082110000000    -0.494968   
O29      O      0.678030000000     0.025770000000     0.238990000000    -0.491982   
O30      O      0.739510000000     0.115520000000     0.143060000000    -0.494406   
O31      O      0.582650000000     0.024820000000     0.150120000000    -0.490577   
O32      O      0.737260000000     0.022680000000     0.170800000000    -0.495568   
O33      O      0.334200000000     0.273450000000     0.428210000000    -0.494164   
O34      O      0.400590000000     0.272010000000     0.488940000000    -0.490019   
O35      O      0.426070000000     0.272570000000     0.335220000000    -0.495702   
O36      O      0.392040000000     0.364120000000     0.332910000000    -0.496389   
O37      O      0.426320000000     0.363710000000     0.492420000000    -0.49109    
O38      O      0.333460000000     0.366850000000     0.401250000000    -0.491977   
O39      O      0.492190000000     0.278330000000     0.396380000000    -0.494605   
O40      O      0.485380000000     0.370900000000     0.424510000000    -0.494418   
O41      O      0.585060000000     0.522260000000     0.651890000000    -0.492627   
O42      O      0.641410000000     0.527340000000     0.581890000000    -0.498018   
O43      O      0.652690000000     0.619430000000     0.737700000000    -0.487512   
O44      O      0.678780000000     0.529280000000     0.743890000000    -0.486594   
O45      O      0.675510000000     0.620720000000     0.587720000000    -0.498373   
O46      O      0.733750000000     0.517060000000     0.674050000000    -0.494166   
O47      O      0.583660000000     0.614640000000     0.680250000000    -0.493564   
O48      O      0.744520000000     0.608540000000     0.643490000000    -0.491696   
O49      O      0.901170000000     0.767250000000     0.482030000000    -0.497029   
O50      O      0.829440000000     0.777330000000     0.428550000000    -0.491262   
O51      O      0.985790000000     0.866820000000     0.423940000000    -0.494559   
O52      O      0.989600000000     0.776450000000     0.387760000000    -0.494137   
O53      O      0.833930000000     0.866780000000     0.392370000000    -0.493013   
O54      O      0.919070000000     0.768800000000     0.332640000000    -0.491557   
O55      O      0.923270000000     0.862470000000     0.488460000000    -0.493384   
O56      O      0.896580000000     0.862670000000     0.327910000000    -0.491254   
O57      O      0.241380000000     0.111240000000     0.644590000000    -0.495699   
O58      O      0.176720000000     0.115360000000     0.581690000000    -0.493945   
O59      O      0.178430000000     0.022730000000     0.737530000000    -0.492757   
O60      O      0.149240000000     0.113640000000     0.736960000000    -0.493849   
O61      O      0.143390000000     0.023570000000     0.578980000000    -0.49465    
O62      O      0.084570000000     0.114300000000     0.673850000000    -0.494999   
O63      O      0.237180000000     0.018160000000     0.669010000000    -0.494979   
O64      O      0.084120000000     0.020450000000     0.647140000000    -0.496535   


