data_structure

_audit_creation_method RASPA-1.0
_audit_creation_date 2023-5-22
_audit_author_name 'Poobodin Mano'

_cell_length_a    22.1448
_cell_length_b    27.7227
_cell_length_c    25.6986
_cell_angle_alpha 90
_cell_angle_beta  90
_cell_angle_gamma 90
_cell_volume      15776.7

_symmetry_cell_setting          triclinic
_symmetry_space_group_name_Hall 'P 1'
_symmetry_space_group_name_H-M  'P 1'
_symmetry_Int_Tables_number     1

_symmetry_equiv_pos_as_xyz 'x,y,z'

loop_
_atom_site_label
_atom_site_type_symbol
_atom_site_fract_x
_atom_site_fract_y
_atom_site_fract_z
_atom_site_charge
C1       C      0.008190000000     0.388590000000     0.931970000000     0.410637   
C2       C      0.887640000000     0.391690000000     0.803460000000     0.408113   
C3       C      0.005690000000     0.268550000000     0.802550000000     0.410258   
C4       C      0.880830000000     0.271050000000     0.929890000000     0.415186   
C5       C      0.133050000000     0.516920000000     0.057380000000     0.415072   
C6       C      0.259530000000     0.519700000000     0.174460000000     0.408612   
C7       C      0.260610000000     0.643780000000     0.053270000000     0.408775   
C8       C      0.134550000000     0.646820000000     0.171000000000     0.408485   
C9       C      0.388830000000     0.769950000000     0.927710000000     0.415848   
C10      C      0.386330000000     0.892380000000     0.800470000000     0.40914    
C11      C      0.510220000000     0.897580000000     0.919500000000     0.415591   
C12      C      0.510170000000     0.766740000000     0.805440000000     0.408553   
C13      C      0.753450000000     0.144080000000     0.055040000000     0.409544   
C14      C      0.750150000000     0.017700000000     0.178870000000     0.415591   
C15      C      0.631430000000     0.139760000000     0.182720000000     0.409139   
C16      C      0.632470000000     0.023940000000     0.048880000000     0.409934   
C17      C      0.385320000000     0.393460000000     0.301720000000     0.415843   
C18      C      0.376170000000     0.269070000000     0.425490000000     0.415369   
C19      C      0.506170000000     0.265490000000     0.310720000000     0.415351   
C20      C      0.501890000000     0.394380000000     0.427710000000     0.408651   
C21      C      0.762210000000     0.519210000000     0.677610000000     0.41622    
C22      C      0.759700000000     0.636910000000     0.550200000000     0.416259   
C23      C      0.629260000000     0.519650000000     0.554750000000     0.41715    
C24      C      0.638220000000     0.639710000000     0.681010000000     0.416468   
C25      C      0.004500000000     0.772340000000     0.295690000000     0.41687    
C26      C      0.002860000000     0.887610000000     0.430490000000     0.416447   
C27      C      0.879060000000     0.890430000000     0.302450000000     0.409289   
C28      C      0.883560000000     0.765470000000     0.424420000000     0.408909   
C29      C      0.250910000000     0.142410000000     0.552630000000     0.40773    
C30      C      0.258580000000     0.017350000000     0.673170000000     0.414493   
C31      C      0.128330000000     0.141940000000     0.673490000000     0.41565    
C32      C      0.130630000000     0.013570000000     0.556430000000     0.409228   
C33      C      0.123020000000     0.964380000000     0.481210000000     0.0317173  
C34      C      0.042820000000     0.966430000000     0.541330000000     0.0186133  
C35      C      0.090270000000     0.932690000000     0.449990000000     0.0316218  
C36      C      0.009500000000     0.934440000000     0.510280000000     0.0671423  
C37      C      0.795360000000     0.741770000000     0.470120000000     0.0320596  
C38      C      0.881200000000     0.691640000000     0.471180000000     0.0178693  
C39      C      0.764780000000     0.708970000000     0.501650000000     0.0307907  
C40      C      0.850830000000     0.658320000000     0.502820000000     0.0678025  
C41      C      0.338730000000     0.187660000000     0.532310000000     0.0313928  
C42      C      0.253770000000     0.192140000000     0.477430000000     0.0184314  
C43      C      0.369650000000     0.219420000000     0.499800000000     0.031383   
C44      C      0.284430000000     0.224180000000     0.444460000000     0.067018   
C45      C      0.590090000000     0.439420000000     0.447370000000     0.031298   
C46      C      0.505510000000     0.444320000000     0.502670000000     0.0182771  
C47      C      0.621430000000     0.471120000000     0.479670000000     0.0306342  
C48      C      0.536650000000     0.476130000000     0.535520000000     0.067521   
C49      C      0.872410000000     0.962680000000     0.253300000000     0.0314267  
C50      C      0.787660000000     0.911760000000     0.260040000000     0.0189215  
C51      C      0.839280000000     0.994360000000     0.222340000000     0.0315295  
C52      C      0.753890000000     0.943360000000     0.228930000000     0.06692    
C53      C      0.542360000000     0.182290000000     0.205320000000     0.0320595  
C54      C      0.628230000000     0.188110000000     0.259000000000     0.0179421  
C55      C      0.511430000000     0.213850000000     0.238010000000     0.0315383  
C56      C      0.597500000000     0.219890000000     0.292230000000     0.0673071  
C57      C      0.297010000000     0.935510000000     0.779420000000     0.0319294  
C58      C      0.382460000000     0.942150000000     0.725370000000     0.0189618  
C59      C      0.265530000000     0.967010000000     0.746960000000     0.0313453  
C60      C      0.351240000000     0.973840000000     0.692430000000     0.0668642  
C61      C      0.517490000000     0.716070000000     0.731370000000     0.0315486  
C62      C      0.599270000000     0.721390000000     0.789670000000     0.0183826  
C63      C      0.550430000000     0.684300000000     0.700410000000     0.0315639  
C64      C      0.632750000000     0.689270000000     0.758920000000     0.0667781  
C65      C      0.543520000000     0.982080000000     0.024410000000     0.0324845  
C66      C      0.631210000000     0.974850000000     0.973150000000     0.0185612  
C67      C      0.513340000000     0.950380000000     0.991350000000     0.0317114  
C68      C      0.601270000000     0.942900000000     0.939600000000     0.0675358  
C69      C      0.126110000000     0.696670000000     0.245650000000     0.0317707  
C70      C      0.046050000000     0.693320000000     0.185450000000     0.0185575  
C71      C      0.092860000000     0.728360000000     0.276470000000     0.0319151  
C72      C      0.012200000000     0.725260000000     0.216140000000     0.0674876  
C73      C      0.269070000000     0.691980000000     0.977280000000     0.0317834  
C74      C      0.349250000000     0.689630000000     0.037400000000     0.0183712  
C75      C      0.301930000000     0.723750000000     0.946160000000     0.0310237  
C76      C      0.382700000000     0.721580000000     0.006440000000     0.0672453  
C77      C      0.266230000000     0.470830000000     0.250030000000     0.0315393  
C78      C      0.348400000000     0.474610000000     0.192020000000     0.0184156  
C79      C      0.298520000000     0.439130000000     0.281630000000     0.030905   
C80      C      0.381330000000     0.442750000000     0.223520000000     0.0672312  
C81      C      0.092660000000     0.222520000000     0.781500000000     0.0321011  
C82      C      0.008390000000     0.221140000000     0.725640000000     0.0183108  
C83      C      0.122930000000     0.190750000000     0.748520000000     0.03121    
C84      C      0.038360000000     0.189090000000     0.692240000000     0.0670293  
C85      C      0.843580000000     0.167990000000     0.012230000000     0.0320636  
C86      C      0.756340000000     0.216110000000     0.005200000000     0.0183568  
C87      C      0.875000000000     0.200370000000     0.980770000000     0.0307853  
C88      C      0.787490000000     0.248950000000     0.973570000000     0.0671272  
C89      C      0.798630000000     0.415370000000     0.758950000000     0.0316534  
C90      C      0.885830000000     0.463740000000     0.753540000000     0.0176416  
C91      C      0.767690000000     0.447870000000     0.727340000000     0.0304803  
C92      C      0.855130000000     0.496720000000     0.721730000000     0.0674654  
C93      C      0.096590000000     0.432990000000     0.952600000000     0.0323127  
C94      C      0.011930000000     0.437400000000     0.007840000000     0.0184463  
C95      C      0.127340000000     0.465340000000     0.984560000000     0.0311242  
C96      C      0.042440000000     0.469970000000     0.040290000000     0.0669525  
H1       H      0.111460000000     0.920640000000     0.414220000000     0.0459071  
H2       H      0.167590000000     0.975240000000     0.468200000000     0.0438068  
H3       H      0.022920000000     0.979180000000     0.577410000000     0.0490848  
H4       H      0.895090000000     0.949170000000     0.516070000000     0.0421281  
H5       H      0.718750000000     0.717850000000     0.512460000000     0.0443343  
H6       H      0.771740000000     0.774190000000     0.458130000000     0.0446924  
H7       H      0.927360000000     0.683840000000     0.459710000000     0.0475608  
H8       H      0.921690000000     0.615050000000     0.566930000000     0.0414844  
H9       H      0.415450000000     0.228890000000     0.510750000000     0.0447139  
H10      H      0.361920000000     0.174120000000     0.566500000000     0.0448426  
H11      H      0.207850000000     0.181910000000     0.467570000000     0.0477987  
H12      H      0.213700000000     0.286190000000     0.401840000000     0.0426948  
H13      H      0.667250000000     0.480340000000     0.468560000000     0.0435207  
H14      H      0.612910000000     0.425810000000     0.413040000000     0.04317    
H15      H      0.459520000000     0.434420000000     0.512670000000     0.0478623  
H16      H      0.505680000000     0.467350000000     0.631450000000     0.0429333  
H17      H      0.862210000000     0.026490000000     0.208570000000     0.0458502  
H18      H      0.918990000000     0.971730000000     0.261950000000     0.0434881  
H19      H      0.766010000000     0.879270000000     0.274470000000     0.0491688  
H20      H      0.641560000000     0.945150000000     0.254100000000     0.0415394  
H21      H      0.465290000000     0.222730000000     0.227560000000     0.0452824  
H22      H      0.518820000000     0.168370000000     0.171490000000     0.0455442  
H23      H      0.674490000000     0.178430000000     0.268310000000     0.0470408  
H24      H      0.667900000000     0.282210000000     0.334710000000     0.0437649  
H25      H      0.219320000000     0.975490000000     0.757550000000     0.0450777  
H26      H      0.273870000000     0.921260000000     0.813290000000     0.0447072  
H27      H      0.428800000000     0.932920000000     0.715830000000     0.0484125  
H28      H      0.383050000000     0.965200000000     0.596690000000     0.0413779  
H29      H      0.528620000000     0.670830000000     0.665520000000     0.0457986  
H30      H      0.472230000000     0.725670000000     0.719000000000     0.0437279  
H31      H      0.619790000000     0.735580000000     0.824850000000     0.0479944  
H32      H      0.703460000000     0.635310000000     0.812830000000     0.0412605  
H33      H      0.466740000000     0.942000000000     0.000680000000     0.0452744  
H34      H      0.518990000000     0.996640000000     0.057390000000     0.0455196  
H35      H      0.677890000000     0.984040000000     0.964920000000     0.0477889  
H36      H      0.672380000000     0.879690000000     0.899580000000     0.0445881  
H37      H      0.113800000000     0.740910000000     0.312140000000     0.0459021  
H38      H      0.170830000000     0.686370000000     0.258810000000     0.0441349  
H39      H      0.026430000000     0.680100000000     0.149460000000     0.0490375  
H40      H      0.897960000000     0.709820000000     0.210010000000     0.0422302  
H41      H      0.280800000000     0.736000000000     0.910440000000     0.0453736  
H42      H      0.224440000000     0.681270000000     0.964290000000     0.0439524  
H43      H      0.369140000000     0.676710000000     0.073400000000     0.0487352  
H44      H      0.496940000000     0.705810000000     0.011440000000     0.0408561  
H45      H      0.276340000000     0.426310000000     0.316630000000     0.0444382  
H46      H      0.221000000000     0.480930000000     0.262000000000     0.043253   
H47      H      0.369320000000     0.488120000000     0.156700000000     0.0486269  
H48      H      0.495380000000     0.459920000000     0.221870000000     0.0408724  
H49      H      0.168210000000     0.179990000000     0.759700000000     0.0449235  
H50      H      0.115790000000     0.234770000000     0.816280000000     0.0448592  
H51      H      0.963040000000     0.232670000000     0.715530000000     0.0474699  
H52      H      0.010580000000     0.202530000000     0.596210000000     0.0402934  
H53      H      0.921900000000     0.192170000000     0.972420000000     0.0444874  
H54      H      0.867460000000     0.136550000000     0.026630000000     0.0449326  
H55      H      0.709320000000     0.223320000000     0.014310000000     0.0477316  
H56      H      0.751900000000     0.336340000000     0.986960000000     0.0414771  
H57      H      0.720960000000     0.439620000000     0.718310000000     0.0435844  
H58      H      0.774560000000     0.383800000000     0.772790000000     0.045046   
H59      H      0.932680000000     0.470910000000     0.763280000000     0.0476206  
H60      H      0.924300000000     0.536450000000     0.653710000000     0.0408683  
H61      H      0.172940000000     0.475060000000     0.973270000000     0.0448585  
H62      H      0.119660000000     0.419370000000     0.918390000000     0.0447678  
H63      H      0.966210000000     0.426900000000     0.018050000000     0.0467099  
H64      H      0.013820000000     0.459910000000     0.136610000000     0.0403893  
In1      In     0.946450000000     0.329650000000     0.866980000000     2.41125    
In2      In     0.197150000000     0.581960000000     0.113770000000     2.41641    
In3      In     0.448050000000     0.831460000000     0.863180000000     2.42224    
In4      In     0.692200000000     0.081610000000     0.116380000000     2.41546    
In5      In     0.442180000000     0.330870000000     0.366580000000     2.42387    
In6      In     0.696830000000     0.578750000000     0.615590000000     2.42008    
In7      In     0.942830000000     0.829210000000     0.363260000000     2.41584    
In8      In     0.191990000000     0.078780000000     0.614230000000     2.4189     
N1       N      0.099030000000     0.981470000000     0.526540000000    -0.174599   
N2       N      0.033360000000     0.917860000000     0.463840000000    -0.181714   
N3       N      0.853490000000     0.733100000000     0.455130000000    -0.174405   
N4       N      0.792060000000     0.667290000000     0.518330000000    -0.181666   
N5       N      0.280970000000     0.174020000000     0.520990000000    -0.17431    
N6       N      0.343050000000     0.237870000000     0.455850000000    -0.181459   
N7       N      0.532360000000     0.425980000000     0.459070000000    -0.174698   
N8       N      0.595400000000     0.489350000000     0.523970000000    -0.181831   
N9       N      0.846540000000     0.921490000000     0.272020000000    -0.174484   
N10      N      0.780130000000     0.985090000000     0.209890000000    -0.181486   
N11      N      0.600770000000     0.169830000000     0.215640000000    -0.174503   
N12      N      0.538680000000     0.233250000000     0.281170000000    -0.181405   
N13      N      0.355350000000     0.923210000000     0.768570000000    -0.174366   
N14      N      0.292130000000     0.986380000000     0.703460000000    -0.181176   
N15      N      0.542110000000     0.734750000000     0.775700000000    -0.174657   
N16      N      0.608050000000     0.670800000000     0.713660000000    -0.181692   
N17      N      0.602480000000     0.993870000000     0.015510000000    -0.174289   
N18      N      0.541920000000     0.930120000000     0.949310000000    -0.181278   
N19      N      0.102430000000     0.678910000000     0.200500000000    -0.174314   
N20      N      0.035690000000     0.742420000000     0.262460000000    -0.181562   
N21      N      0.292810000000     0.675000000000     0.022750000000    -0.174535   
N22      N      0.358700000000     0.738710000000     0.960270000000    -0.181711   
N23      N      0.291230000000     0.488470000000     0.205360000000    -0.174467   
N24      N      0.355990000000     0.424880000000     0.268830000000    -0.181743   
N25      N      0.035490000000     0.237540000000     0.770030000000    -0.174755   
N26      N      0.096200000000     0.173660000000     0.704000000000    -0.181625   
N27      N      0.784350000000     0.175900000000     0.024250000000    -0.174588   
N28      N      0.847440000000     0.240830000000     0.961150000000    -0.181237   
N29      N      0.857520000000     0.423420000000     0.772020000000    -0.174292   
N30      N      0.795370000000     0.488630000000     0.708620000000    -0.181857   
N31      N      0.038870000000     0.419390000000     0.964100000000    -0.174779   
N32      N      0.100620000000     0.484330000000     0.028190000000    -0.181323   
O1       O      0.860080000000     0.308930000000     0.909540000000    -0.491517   
O2       O      0.935470000000     0.262980000000     0.918620000000    -0.503918   
O3       O      0.942000000000     0.397650000000     0.816870000000    -0.502681   
O4       O      0.030930000000     0.371490000000     0.890850000000    -0.490692   
O5       O      0.028560000000     0.284300000000     0.844230000000    -0.491136   
O6       O      0.954430000000     0.375620000000     0.940480000000    -0.505321   
O7       O      0.863220000000     0.354190000000     0.821760000000    -0.487067   
O8       O      0.952950000000     0.283630000000     0.793450000000    -0.505387   
O9       O      0.114360000000     0.628960000000     0.129280000000    -0.494212   
O10      O      0.186480000000     0.632110000000     0.183660000000    -0.499497   
O11      O      0.280700000000     0.536980000000     0.132800000000    -0.495047   
O12      O      0.112740000000     0.537300000000     0.097570000000    -0.496932   
O13      O      0.280720000000     0.627160000000     0.095610000000    -0.496203   
O14      O      0.186180000000     0.529600000000     0.045740000000    -0.501793   
O15      O      0.206800000000     0.533780000000     0.185380000000    -0.499778   
O16      O      0.208380000000     0.629160000000     0.041420000000    -0.499117   
O17      O      0.457120000000     0.779900000000     0.794290000000    -0.501789   
O18      O      0.531630000000     0.786050000000     0.845910000000    -0.494937   
O19      O      0.363270000000     0.873770000000     0.840720000000    -0.493839   
O20      O      0.366190000000     0.785540000000     0.885810000000    -0.496485   
O21      O      0.532650000000     0.875060000000     0.881540000000    -0.495362   
O22      O      0.441210000000     0.785620000000     0.936530000000    -0.50559    
O23      O      0.440390000000     0.880190000000     0.792020000000    -0.502572   
O24      O      0.455840000000     0.886670000000     0.928730000000    -0.503155   
O25      O      0.687160000000     0.035550000000     0.042710000000    -0.503699   
O26      O      0.607990000000     0.041680000000     0.088910000000    -0.489365   
O27      O      0.775060000000     0.055300000000     0.161190000000    -0.491719   
O28      O      0.777380000000     0.106600000000     0.073880000000    -0.489665   
O29      O      0.607970000000     0.122500000000     0.142000000000    -0.490227   
O30      O      0.698620000000     0.149820000000     0.066960000000    -0.505785   
O31      O      0.695850000000     0.012980000000     0.165140000000    -0.506819   
O32      O      0.685700000000     0.127520000000     0.190120000000    -0.504552   
O33      O      0.448370000000     0.381100000000     0.436770000000    -0.503152   
O34      O      0.525180000000     0.375740000000     0.387620000000    -0.495651   
O35      O      0.356220000000     0.288730000000     0.384730000000    -0.496566   
O36      O      0.361290000000     0.377130000000     0.342700000000    -0.497509   
O37      O      0.527060000000     0.286770000000     0.350160000000    -0.495721   
O38      O      0.438110000000     0.378130000000     0.294020000000    -0.504669   
O39      O      0.429880000000     0.280780000000     0.436310000000    -0.503624   
O40      O      0.452500000000     0.277260000000     0.299850000000    -0.503693   
O41      O      0.690700000000     0.624060000000     0.689630000000    -0.505618   
O42      O      0.615490000000     0.624360000000     0.639080000000    -0.493709   
O43      O      0.779880000000     0.597530000000     0.567360000000    -0.493916   
O44      O      0.782620000000     0.557940000000     0.658990000000    -0.49329    
O45      O      0.611130000000     0.536500000000     0.597500000000    -0.495915   
O46      O      0.708020000000     0.510800000000     0.665120000000    -0.506121   
O47      O      0.706840000000     0.646500000000     0.565560000000    -0.505189   
O48      O      0.682180000000     0.532660000000     0.542820000000    -0.506375   
O49      O      0.937480000000     0.759230000000     0.409900000000    -0.503873   
O50      O      0.859700000000     0.804040000000     0.408290000000    -0.489008   
O51      O      0.025390000000     0.872870000000     0.388210000000    -0.493187   
O52      O      0.026920000000     0.787900000000     0.337680000000    -0.492817   
O53      O      0.857030000000     0.851950000000     0.320670000000    -0.490758   
O54      O      0.950880000000     0.785840000000     0.288060000000    -0.506299   
O55      O      0.949950000000     0.872620000000     0.438490000000    -0.507012   
O56      O      0.933490000000     0.897890000000     0.314710000000    -0.50366    
O57      O      0.182460000000     0.028740000000     0.544120000000    -0.501292   
O58      O      0.109980000000     0.031060000000     0.598170000000    -0.494716   
O59      O      0.278210000000     0.037080000000     0.632360000000    -0.49639    
O60      O      0.274140000000     0.124720000000     0.593270000000    -0.492802   
O61      O      0.107690000000     0.122810000000     0.632730000000    -0.497957   
O62      O      0.197830000000     0.128160000000     0.543320000000    -0.500336   
O63      O      0.204780000000     0.028750000000     0.684080000000    -0.501305   
O64      O      0.181580000000     0.128950000000     0.684280000000    -0.502822   
S1       S      0.937720000000     0.917590000000     0.534320000000    -0.0131558  
S2       S      0.892200000000     0.606410000000     0.520990000000    -0.0118906  
S3       S      0.243950000000     0.244640000000     0.389410000000    -0.0108174  
S4       S      0.496180000000     0.497630000000     0.590110000000    -0.0106858  
S5       S      0.678360000000     0.926220000000     0.216420000000    -0.0122452  
S6       S      0.638110000000     0.240450000000     0.347150000000    -0.0120657  
S7       S      0.391850000000     0.995600000000     0.638030000000    -0.0083094  
S8       S      0.706130000000     0.675200000000     0.781430000000    -0.0132218  
S9       S      0.643470000000     0.921520000000     0.885940000000    -0.0105009  
S10      S      0.940400000000     0.741520000000     0.191670000000    -0.0134057  
S11      S      0.454890000000     0.737590000000     0.030260000000    -0.0118156  
S12      S      0.454660000000     0.427830000000     0.201550000000    -0.0123151  
S13      S      0.998200000000     0.171150000000     0.636000000000    -0.0099957  
S14      S      0.745730000000     0.299460000000     0.951860000000    -0.00811109 
S15      S      0.897310000000     0.547120000000     0.700280000000    -0.011188   
S16      S      0.002350000000     0.490190000000     0.095650000000    -0.0104796  


