data_structure

_audit_creation_method RASPA-1.0
_audit_creation_date 2023-6-5
_audit_author_name 'Poobodin Mano'

_cell_length_a    43.1796
_cell_length_b    42.5348
_cell_length_c    24.7081
_cell_angle_alpha 89.6975
_cell_angle_beta  90.3025
_cell_angle_gamma 89.9995
_cell_volume      45378.5

_symmetry_cell_setting          triclinic
_symmetry_space_group_name_Hall 'P 1'
_symmetry_space_group_name_H-M  'P 1'
_symmetry_Int_Tables_number     1

_symmetry_equiv_pos_as_xyz 'x,y,z'

loop_
_atom_site_label
_atom_site_type_symbol
_atom_site_fract_x
_atom_site_fract_y
_atom_site_fract_z
_atom_site_charge
C1       C      0.325780000000     0.402690000000     0.979660000000     0.445096   
C2       C      0.307900000000     0.313240000000     0.884290000000     0.422946   
C3       C      0.392270000000     0.324330000000     0.968290000000     0.443694   
C4       C      0.301700000000     0.316990000000     0.063610000000     0.444975   
C5       C      0.327570000000     0.633070000000     0.963950000000     0.415622   
C6       C      0.316720000000     0.725730000000     0.060930000000     0.437624   
C7       C      0.399350000000     0.706800000000     0.983520000000     0.416391   
C8       C      0.308880000000     0.716360000000     0.881540000000     0.438972   
C9       C      0.618810000000     0.324650000000     0.976280000000     0.4168     
C10      C      0.710550000000     0.313600000000     0.889990000000     0.440746   
C11      C      0.685310000000     0.401180000000     0.966880000000     0.421981   
C12      C      0.706810000000     0.312420000000     0.065390000000     0.413465   
C13      C      0.689410000000     0.632220000000     0.962120000000     0.437573   
C14      C      0.717070000000     0.723180000000     0.880430000000     0.444433   
C15      C      0.626060000000     0.704280000000     0.972150000000     0.445461   
C16      C      0.719720000000     0.722830000000     0.048320000000     0.437878   
C17      C      0.819000000000     0.129240000000     0.480080000000     0.445597   
C18      C      0.804460000000     0.220830000000     0.566110000000     0.419568   
C19      C      0.891600000000     0.200060000000     0.484470000000     0.44315    
C20      C      0.802630000000     0.218150000000     0.390020000000     0.442676   
C21      C      0.902340000000     0.830870000000     0.457750000000     0.442348   
C22      C      0.813460000000     0.813010000000     0.554640000000     0.418157   
C23      C      0.826060000000     0.899090000000     0.476510000000     0.412903   
C24      C      0.818750000000     0.811400000000     0.372080000000     0.415369   
C25      C      0.129100000000     0.829180000000     0.478520000000     0.418512   
C26      C      0.220560000000     0.819340000000     0.380410000000     0.412486   
C27      C      0.199200000000     0.902850000000     0.456680000000     0.440712   
C28      C      0.212280000000     0.810930000000     0.559170000000     0.4111     
C29      C      0.118830000000     0.205080000000     0.481900000000     0.418441   
C30      C      0.208670000000     0.219610000000     0.564280000000     0.440073   
C31      C      0.188080000000     0.132820000000     0.471570000000     0.412964   
C32      C      0.204230000000     0.223820000000     0.385280000000     0.422608   
C33      C      0.182220000000     0.951660000000     0.418850000000     0.419133   
C34      C      0.221070000000     0.950890000000     0.487180000000     0.0992533  
C35      C      0.181650000000     0.984430000000     0.419830000000    -0.212864   
C36      C      0.168420000000     0.049570000000     0.461130000000    -0.0740754  
C37      C      0.221080000000     0.983760000000     0.489000000000    -0.118077   
C38      C      0.197750000000     0.035520000000     0.460850000000     0.0185011  
C39      C      0.200600000000     0.000860000000     0.456050000000     0.0971784  
C40      C      0.165700000000     0.082110000000     0.465220000000     0.0755841  
C41      C      0.220340000000     0.087450000000     0.469090000000     0.076085   
C42      C      0.223920000000     0.054820000000     0.465370000000    -0.0723756  
C43      C      0.948450000000     0.799700000000     0.464650000000     0.417597   
C44      C      0.951580000000     0.855060000000     0.453330000000     0.100045   
C45      C      0.980760000000     0.797770000000     0.468520000000    -0.210366   
C46      C      0.050860000000     0.801690000000     0.445960000000    -0.0728616  
C47      C      0.983740000000     0.853920000000     0.457400000000    -0.119543   
C48      C      0.032860000000     0.824130000000     0.472680000000     0.0189936  
C49      C      0.998710000000     0.825140000000     0.465900000000     0.097073   
C50      C      0.083190000000     0.803020000000     0.449680000000     0.0760534  
C51      C      0.080060000000     0.847090000000     0.507810000000     0.0773831  
C52      C      0.047840000000     0.846550000000     0.504780000000    -0.0741404  
C53      C      0.812680000000     0.081070000000     0.529060000000     0.419749   
C54      C      0.815850000000     0.080810000000     0.433210000000     0.0997383  
C55      C      0.811480000000     0.048250000000     0.530040000000    -0.211483   
C56      C      0.832480000000     0.980550000000     0.521500000000    -0.0739855  
C57      C      0.814710000000     0.047990000000     0.432880000000    -0.11849    
C58      C      0.814500000000     0.996320000000     0.482540000000     0.0188438  
C59      C      0.813050000000     0.031260000000     0.481750000000     0.0968725  
C60      C      0.835410000000     0.947900000000     0.519700000000     0.0757146  
C61      C      0.802470000000     0.945780000000     0.442720000000     0.0745917  
C62      C      0.799060000000     0.978460000000     0.443260000000    -0.0739055  
C63      C      0.937640000000     0.229300000000     0.464670000000     0.418859   
C64      C      0.940770000000     0.179850000000     0.509300000000     0.0999187  
C65      C      0.969970000000     0.231800000000     0.465250000000    -0.209957   
C66      C      0.038360000000     0.219740000000     0.441820000000    -0.0736521  
C67      C      0.973000000000     0.181730000000     0.510690000000    -0.118475   
C68      C      0.022440000000     0.209430000000     0.487900000000     0.0189083  
C69      C      0.988050000000     0.207820000000     0.488270000000     0.0966378  
C70      C      0.070720000000     0.218810000000     0.440880000000     0.0752238  
C71      C      0.071990000000     0.198820000000     0.530640000000     0.0761872  
C72      C      0.039710000000     0.199370000000     0.532930000000    -0.0747543  
C73      C      0.719790000000     0.763950000000     0.813620000000     0.425432   
C74      C      0.756100000000     0.722060000000     0.813260000000     0.104636   
C75      C      0.733400000000     0.776920000000     0.767440000000    -0.209328   
C76      C      0.754740000000     0.788070000000     0.652110000000    -0.0725376  
C77      C      0.770220000000     0.734480000000     0.767150000000    -0.116739   
C78      C      0.773150000000     0.775470000000     0.693800000000     0.0201823  
C79      C      0.758790000000     0.762150000000     0.743440000000     0.0996562  
C80      C      0.768610000000     0.800510000000     0.605750000000     0.0768815  
C81      C      0.818470000000     0.788380000000     0.640730000000     0.0765135  
C82      C      0.805380000000     0.775720000000     0.687590000000    -0.0728273  
C83      C      0.728360000000     0.765880000000     0.108480000000     0.419732   
C84      C      0.757000000000     0.718560000000     0.118770000000     0.100061   
C85      C      0.743370000000     0.778650000000     0.153540000000    -0.210565   
C86      C      0.791860000000     0.804510000000     0.232010000000    -0.0735211  
C87      C      0.772100000000     0.730540000000     0.164300000000    -0.118859   
C88      C      0.780420000000     0.773710000000     0.231460000000     0.0187954  
C89      C      0.765270000000     0.760860000000     0.182300000000     0.097582   
C90      C      0.805190000000     0.816540000000     0.279180000000     0.0758345  
C91      C      0.796100000000     0.768410000000     0.325330000000     0.0760831  
C92      C      0.782960000000     0.755500000000     0.278670000000    -0.0732223  
C93      C      0.744770000000     0.319010000000     0.814560000000     0.418953   
C94      C      0.719390000000     0.270530000000     0.831810000000     0.102058   
C95      C      0.758510000000     0.306410000000     0.768330000000    -0.209663   
C96      C      0.796490000000     0.268720000000     0.687940000000    -0.0712706  
C97      C      0.732870000000     0.257250000000     0.786170000000    -0.118673   
C98      C      0.766080000000     0.261630000000     0.703500000000     0.0210097  
C99      C      0.752450000000     0.275270000000     0.753350000000     0.0983581  
C100     C      0.808920000000     0.255140000000     0.641450000000     0.0794181  
C101     C      0.761930000000     0.227840000000     0.625150000000     0.0831526  
C102     C      0.748740000000     0.241110000000     0.671090000000    -0.071713   
C103     C      0.760830000000     0.246230000000     0.348160000000     0.419587   
C104     C      0.804000000000     0.230070000000     0.296160000000     0.102407   
C105     C      0.747190000000     0.259810000000     0.302260000000    -0.210626   
C106     C      0.732230000000     0.301690000000     0.205810000000    -0.0731539  
C107     C      0.790940000000     0.243420000000     0.249580000000    -0.117659   
C108     C      0.747830000000     0.272830000000     0.203050000000     0.0188145  
C109     C      0.762190000000     0.258550000000     0.252220000000     0.0978348  
C110     C      0.718660000000     0.314630000000     0.159330000000     0.0753827  
C111     C      0.735560000000     0.271270000000     0.107280000000     0.0740085  
C112     C      0.749400000000     0.257660000000     0.152930000000    -0.0736165  
C113     C      0.684470000000     0.583960000000     0.913430000000     0.419764   
C114     C      0.695800000000     0.583410000000     0.007530000000     0.0999746  
C115     C      0.684490000000     0.551080000000     0.912650000000    -0.209541   
C116     C      0.666320000000     0.482780000000     0.932920000000    -0.0731528  
C117     C      0.696210000000     0.550590000000     0.007950000000    -0.118445   
C118     C      0.689730000000     0.499090000000     0.960400000000     0.020281   
C119     C      0.690350000000     0.534010000000     0.960230000000     0.0973141  
C120     C      0.665370000000     0.449980000000     0.935150000000     0.0786262  
C121     C      0.710600000000     0.448940000000     0.989990000000     0.078889   
C122     C      0.712130000000     0.481750000000     0.988950000000    -0.0735017  
C123     C      0.308820000000     0.726930000000     0.786360000000     0.41983    
C124     C      0.265350000000     0.740550000000     0.839810000000     0.102177   
C125     C      0.294320000000     0.739330000000     0.740260000000    -0.210615   
C126     C      0.248540000000     0.751750000000     0.646920000000    -0.0740499  
C127     C      0.250510000000     0.753630000000     0.794660000000    -0.117837   
C128     C      0.250140000000     0.767800000000     0.696170000000     0.0185336  
C129     C      0.265050000000     0.753180000000     0.744240000000     0.0978083  
C130     C      0.235180000000     0.766320000000     0.601650000000     0.0745159  
C131     C      0.225380000000     0.812340000000     0.652610000000     0.0745355  
C132     C      0.238070000000     0.798290000000     0.698870000000    -0.0738924  
C133     C      0.293200000000     0.770510000000     0.102060000000     0.418761   
C134     C      0.305140000000     0.725130000000     0.154570000000     0.0998011  
C135     C      0.280100000000     0.784870000000     0.147260000000    -0.211831   
C136     C      0.234440000000     0.794750000000     0.241070000000    -0.0731664  
C137     C      0.292800000000     0.739120000000     0.200650000000    -0.119843   
C138     C      0.264790000000     0.783420000000     0.244720000000     0.0180335  
C139     C      0.279740000000     0.769120000000     0.197070000000     0.0976642  
C140     C      0.220000000000     0.806740000000     0.286960000000     0.0762373  
C141     C      0.265410000000     0.797820000000     0.339330000000     0.0747549  
C142     C      0.280340000000     0.785060000000     0.294460000000    -0.0739235  
C143     C      0.576870000000     0.712070000000     0.929240000000     0.425359   
C144     C      0.580430000000     0.707470000000     0.024850000000     0.104086   
C145     C      0.544680000000     0.714710000000     0.932430000000    -0.20932    
C146     C      0.477870000000     0.733600000000     0.952850000000    -0.0709041  
C147     C      0.548300000000     0.709960000000     0.029320000000    -0.117575   
C148     C      0.495610000000     0.713710000000     0.986150000000     0.0200189  
C149     C      0.529970000000     0.713310000000     0.982730000000     0.0997736  
C150     C      0.445550000000     0.731730000000     0.953670000000     0.0783132  
C151     C      0.447900000000     0.691660000000     0.020660000000     0.0766337  
C152     C      0.480180000000     0.692980000000     0.021020000000    -0.0733929  
C153     C      0.249760000000     0.218950000000     0.629630000000     0.418252   
C154     C      0.210600000000     0.258020000000     0.633260000000     0.100924   
C155     C      0.264480000000     0.232050000000     0.674710000000    -0.210427   
C156     C      0.281000000000     0.254120000000     0.787870000000    -0.0715711  
C157     C      0.224680000000     0.271540000000     0.678420000000    -0.118273   
C158     C      0.267420000000     0.272990000000     0.747570000000     0.0211989  
C159     C      0.252040000000     0.258690000000     0.699650000000     0.0981586  
C160     C      0.294790000000     0.267990000000     0.833090000000     0.0825336  
C161     C      0.282260000000     0.318790000000     0.799560000000     0.0813904  
C162     C      0.268410000000     0.305720000000     0.753740000000    -0.0718728  
C163     C      0.260360000000     0.287510000000     0.103020000000     0.420749   
C164     C      0.299040000000     0.310450000000     0.158840000000     0.101249   
C165     C      0.245890000000     0.274670000000     0.148460000000    -0.211218   
C166     C      0.232050000000     0.234450000000     0.246890000000    -0.0736146  
C167     C      0.285100000000     0.297920000000     0.205030000000    -0.118635   
C168     C      0.243650000000     0.265200000000     0.248640000000     0.0189845  
C169     C      0.258310000000     0.279580000000     0.200180000000     0.0979749  
C170     C      0.218740000000     0.221050000000     0.292910000000     0.0761465  
C171     C      0.227860000000     0.267770000000     0.342470000000     0.0754541  
C172     C      0.241340000000     0.281900000000     0.297190000000    -0.073768   
C173     C      0.440980000000     0.330150000000     0.923990000000     0.420162   
C174     C      0.438180000000     0.304730000000     0.009550000000     0.0998589  
C175     C      0.473220000000     0.327760000000     0.924820000000    -0.212074   
C176     C      0.540640000000     0.308990000000     0.925760000000    -0.0734312  
C177     C      0.470420000000     0.301960000000     0.011520000000    -0.118613   
C178     C      0.522860000000     0.313850000000     0.972270000000     0.0182254  
C179     C      0.488420000000     0.314040000000     0.969250000000     0.0973043  
C180     C      0.572810000000     0.311970000000     0.928160000000     0.0754726  
C181     C      0.570540000000     0.323030000000     0.022010000000     0.0736529  
C182     C      0.538280000000     0.320370000000     0.021020000000    -0.0737662  
C183     C      0.295850000000     0.450020000000     0.972460000000     0.419234   
C184     C      0.350380000000     0.452240000000     0.984620000000     0.102233   
C185     C      0.294490000000     0.482880000000     0.969310000000    -0.209495   
C186     C      0.299230000000     0.553740000000     0.993840000000    -0.0733287  
C187     C      0.349780000000     0.484920000000     0.981380000000    -0.118807   
C188     C      0.321320000000     0.535390000000     0.967230000000     0.0189613  
C189     C      0.321720000000     0.500640000000     0.972900000000     0.0974729  
C190     C      0.301060000000     0.586560000000     0.991150000000     0.0748583  
C191     C      0.345090000000     0.583290000000     0.934470000000     0.0763161  
C192     C      0.344020000000     0.550580000000     0.936420000000    -0.0740179  
F1       F      0.162990000000     0.937000000000     0.383300000000    -0.442322   
F2       F      0.931970000000     0.772570000000     0.468500000000    -0.441415   
F3       F      0.811390000000     0.096300000000     0.577220000000    -0.44077    
F4       F      0.921170000000     0.253180000000     0.441780000000    -0.439643   
F5       F      0.695200000000     0.779320000000     0.835160000000    -0.426628   
F6       F      0.707060000000     0.784040000000     0.082370000000    -0.43489    
F7       F      0.751110000000     0.349450000000     0.826860000000    -0.440419   
F8       F      0.745140000000     0.248070000000     0.395580000000    -0.439895   
F9       F      0.678670000000     0.599350000000     0.866110000000    -0.434453   
F10      F      0.337400000000     0.714030000000     0.780390000000    -0.438574   
F11      F      0.292830000000     0.786720000000     0.054510000000    -0.440326   
F12      F      0.589860000000     0.713140000000     0.879270000000    -0.42641    
F13      F      0.262950000000     0.193240000000     0.606820000000    -0.440791   
F14      F      0.247280000000     0.281930000000     0.053830000000    -0.438524   
F15      F      0.427600000000     0.344200000000     0.880210000000    -0.440791   
F16      F      0.268900000000     0.433740000000     0.967780000000    -0.438179   
H1       H      0.142540000000     0.092010000000     0.465220000000     0.036887   
H2       H      0.236560000000     0.938430000000     0.514520000000     0.0319391  
H3       H      0.247000000000     0.044870000000     0.465120000000     0.0588013  
H4       H      0.236160000000     0.995590000000     0.517540000000     0.0695366  
H5       H      0.147560000000     0.035480000000     0.458730000000     0.0600142  
H6       H      0.166100000000     0.996880000000     0.392650000000     0.121112   
H7       H      0.241070000000     0.101730000000     0.472000000000     0.0446422  
H8       H      0.096480000000     0.785890000000     0.427210000000     0.0379397  
H9       H      0.941000000000     0.877960000000     0.447390000000     0.0308711  
H10      H      0.034730000000     0.863880000000     0.527060000000     0.0571946  
H11      H      0.996810000000     0.875580000000     0.453960000000     0.0693631  
H12      H      0.040130000000     0.783940000000     0.420790000000     0.0607196  
H13      H      0.991570000000     0.775060000000     0.474950000000     0.120494   
H14      H      0.090740000000     0.865240000000     0.532280000000     0.0384322  
H15      H      0.850050000000     0.936680000000     0.549920000000     0.0375078  
H16      H      0.817820000000     0.092800000000     0.394540000000     0.0306518  
H17      H      0.784550000000     0.989630000000     0.412890000000     0.0571025  
H18      H      0.816190000000     0.035840000000     0.394570000000     0.0674569  
H19      H      0.845080000000     0.993400000000     0.552280000000     0.0604436  
H20      H      0.809540000000     0.036220000000     0.568640000000     0.121234   
H21      H      0.790540000000     0.932800000000     0.411230000000     0.0379753  
H22      H      0.082210000000     0.226330000000     0.404100000000     0.037046   
H23      H      0.930190000000     0.159030000000     0.526700000000     0.0333805  
H24      H      0.028360000000     0.191740000000     0.569720000000     0.0572211  
H25      H      0.986050000000     0.162430000000     0.528240000000     0.0678583  
H26      H      0.025930000000     0.227510000000     0.405990000000     0.0606978  
H27      H      0.980740000000     0.252530000000     0.448000000000     0.121232   
H28      H      0.084480000000     0.190450000000     0.566080000000     0.037599   
H29      H      0.753590000000     0.809970000000     0.574330000000     0.0384544  
H30      H      0.765500000000     0.700430000000     0.829980000000     0.0360273  
H31      H      0.820500000000     0.766580000000     0.719050000000     0.0583291  
H32      H      0.789640000000     0.722100000000     0.749650000000     0.0713101  
H33      H      0.729720000000     0.787990000000     0.654880000000     0.0646157  
H34      H      0.724190000000     0.798650000000     0.750910000000     0.125098   
H35      H      0.843500000000     0.788240000000     0.637550000000     0.041615   
H36      H      0.813660000000     0.840540000000     0.278090000000     0.0383647  
H37      H      0.762920000000     0.694910000000     0.106310000000     0.0324505  
H38      H      0.774190000000     0.731650000000     0.279980000000     0.0583087  
H39      H      0.789150000000     0.716160000000     0.185140000000     0.0691032  
H40      H      0.790630000000     0.819220000000     0.196130000000     0.0614139  
H41      H      0.737350000000     0.802160000000     0.166500000000     0.122775   
H42      H      0.797260000000     0.753750000000     0.361340000000     0.0399123  
H43      H      0.832590000000     0.260950000000     0.630970000000     0.0422309  
H44      H      0.704240000000     0.255710000000     0.855770000000     0.0328075  
H45      H      0.724960000000     0.235440000000     0.680820000000     0.0606634  
H46      H      0.728020000000     0.232880000000     0.776930000000     0.0701407  
H47      H      0.810870000000     0.284200000000     0.712000000000     0.0624073  
H48      H      0.773290000000     0.321270000000     0.743840000000     0.122909   
H49      H      0.747740000000     0.211980000000     0.601370000000     0.0481952  
H50      H      0.706860000000     0.337010000000     0.163090000000     0.0380415  
H51      H      0.826350000000     0.218690000000     0.292310000000     0.0353093  
H52      H      0.760850000000     0.235140000000     0.149030000000     0.0565188  
H53      H      0.803560000000     0.242210000000     0.211890000000     0.0694629  
H54      H      0.730800000000     0.314450000000     0.243530000000     0.0614515  
H55      H      0.724710000000     0.270880000000     0.305930000000     0.121308   
H56      H      0.737180000000     0.258730000000     0.069300000000     0.0372639  
H57      H      0.646650000000     0.438230000000     0.913920000000     0.0394794  
H58      H      0.700220000000     0.595270000000     0.045540000000     0.0320856  
H59      H      0.730820000000     0.493450000000     0.010210000000     0.0587356  
H60      H      0.700510000000     0.538310000000     0.045760000000     0.0678646  
H61      H      0.648400000000     0.495280000000     0.910780000000     0.062702   
H62      H      0.680160000000     0.539080000000     0.874800000000     0.12448    
H63      H      0.728270000000     0.436340000000     0.012700000000     0.0401297  
H64      H      0.234400000000     0.753210000000     0.564150000000     0.0368855  
H65      H      0.253320000000     0.741450000000     0.878190000000     0.03796    
H66      H      0.239100000000     0.811500000000     0.736210000000     0.0595877  
H67      H      0.227740000000     0.763940000000     0.799170000000     0.0701482  
H68      H      0.257440000000     0.728040000000     0.643440000000     0.0605439  
H69      H      0.306290000000     0.738710000000     0.701850000000     0.122526   
H70      H      0.216670000000     0.836150000000     0.656060000000     0.0379073  
H71      H      0.196300000000     0.814880000000     0.282790000000     0.0422704  
H72      H      0.314600000000     0.701630000000     0.158850000000     0.0310055  
H73      H      0.303920000000     0.776630000000     0.298590000000     0.0576198  
H74      H      0.292760000000     0.726190000000     0.238550000000     0.0684936  
H75      H      0.221660000000     0.793650000000     0.203270000000     0.0623172  
H76      H      0.270290000000     0.808220000000     0.143300000000     0.122811   
H77      H      0.278110000000     0.798700000000     0.377270000000     0.037072   
H78      H      0.432600000000     0.747090000000     0.926670000000     0.0460974  
H79      H      0.593730000000     0.704640000000     0.061920000000     0.0344357  
H80      H      0.492940000000     0.676990000000     0.047120000000     0.0567586  
H81      H      0.537910000000     0.709170000000     0.069100000000     0.0696532  
H82      H      0.488870000000     0.750330000000     0.925910000000     0.0659159  
H83      H      0.531330000000     0.716930000000     0.895360000000     0.126902   
H84      H      0.436880000000     0.674750000000     0.047340000000     0.0367118  
H85      H      0.304790000000     0.252590000000     0.863620000000     0.043411   
H86      H      0.189450000000     0.268790000000     0.618230000000     0.0318861  
H87      H      0.258720000000     0.321260000000     0.723200000000     0.0594819  
H88      H      0.213900000000     0.291790000000     0.696910000000     0.0703446  
H89      H      0.280490000000     0.228720000000     0.785160000000     0.0631517  
H90      H      0.285810000000     0.221580000000     0.689400000000     0.12194    
H91      H      0.282420000000     0.344200000000     0.802930000000     0.0454387  
H92      H      0.210240000000     0.197130000000     0.290010000000     0.0372462  
H93      H      0.319930000000     0.324230000000     0.164380000000     0.0312527  
H94      H      0.249630000000     0.305870000000     0.300150000000     0.0571822  
H95      H      0.295680000000     0.302060000000     0.244190000000     0.0682066  
H96      H      0.233710000000     0.220520000000     0.210440000000     0.0610057  
H97      H      0.224890000000     0.261080000000     0.143030000000     0.122137   
H98      H      0.226510000000     0.281430000000     0.379330000000     0.0369052  
H99      H      0.585670000000     0.308610000000     0.891050000000     0.0390025  
H100     H      0.425150000000     0.295580000000     0.043570000000     0.0311908  
H101     H      0.525520000000     0.324570000000     0.057890000000     0.0556825  
H102     H      0.481150000000     0.290650000000     0.046230000000     0.0674484  
H103     H      0.529790000000     0.303270000000     0.887440000000     0.0608582  
H104     H      0.486190000000     0.337660000000     0.891430000000     0.121795   
H105     H      0.581580000000     0.328820000000     0.060200000000     0.0354908  
H106     H      0.284110000000     0.600090000000     0.013400000000     0.0377151  
H107     H      0.372740000000     0.441110000000     0.990720000000     0.0347752  
H108     H      0.361120000000     0.537250000000     0.914270000000     0.0597586  
H109     H      0.371300000000     0.497800000000     0.985550000000     0.0692324  
H110     H      0.281310000000     0.542870000000     0.018080000000     0.0605709  
H111     H      0.272330000000     0.494270000000     0.962780000000     0.121599   
H112     H      0.363390000000     0.594090000000     0.910920000000     0.0415188  
In1      In     0.331470000000     0.339270000000     0.975000000000     2.43364    
In2      In     0.337910000000     0.695630000000     0.972370000000     2.42655    
In3      In     0.680250000000     0.337930000000     0.975650000000     2.41156    
In4      In     0.688180000000     0.695870000000     0.965650000000     2.43265    
In5      In     0.829400000000     0.192160000000     0.479250000000     2.42174    
In6      In     0.840010000000     0.837550000000     0.464860000000     2.41887    
In7      In     0.190610000000     0.840120000000     0.469110000000     2.42318    
In8      In     0.180600000000     0.195990000000     0.474990000000     2.41522    
N1       N      0.201160000000     0.934970000000     0.453560000000    -0.243854   
N2       N      0.191440000000     0.100890000000     0.468790000000    -0.189972   
N3       N      0.933980000000     0.828320000000     0.458000000000    -0.244007   
N4       N      0.097580000000     0.826040000000     0.479320000000    -0.191573   
N5       N      0.815520000000     0.097200000000     0.480910000000    -0.243979   
N6       N      0.820990000000     0.930770000000     0.480030000000    -0.19074    
N7       N      0.923190000000     0.203290000000     0.486220000000    -0.242867   
N8       N      0.087300000000     0.207890000000     0.484620000000    -0.191245   
N9       N      0.730960000000     0.736510000000     0.836120000000    -0.240889   
N10      N      0.800200000000     0.800660000000     0.600220000000    -0.191297   
N11      N      0.735020000000     0.735880000000     0.091460000000    -0.242224   
N12      N      0.806900000000     0.798740000000     0.325580000000    -0.191075   
N13      N      0.725040000000     0.301200000000     0.845740000000    -0.242774   
N14      N      0.791810000000     0.234680000000     0.610680000000    -0.188047   
N15      N      0.789120000000     0.231440000000     0.345060000000    -0.242437   
N16      N      0.720300000000     0.299490000000     0.110550000000    -0.19141    
N17      N      0.689910000000     0.600000000000     0.960770000000    -0.242184   
N18      N      0.687210000000     0.433260000000     0.963780000000    -0.190553   
N19      N      0.294440000000     0.727720000000     0.835920000000    -0.241503   
N20      N      0.224090000000     0.796500000000     0.604410000000    -0.191135   
N21      N      0.305200000000     0.740580000000     0.105610000000    -0.24292    
N22      N      0.235360000000     0.808140000000     0.335660000000    -0.190421   
N23      N      0.594590000000     0.708070000000     0.975230000000    -0.241512   
N24      N      0.430800000000     0.710410000000     0.986440000000    -0.19053    
N25      N      0.223020000000     0.232000000000     0.608940000000    -0.243502   
N26      N      0.295150000000     0.300040000000     0.838990000000    -0.188432   
N27      N      0.286950000000     0.305100000000     0.108220000000    -0.243706   
N28      N      0.216800000000     0.237570000000     0.340300000000    -0.193112   
N29      N      0.423620000000     0.319370000000     0.966780000000    -0.243639   
N30      N      0.587520000000     0.319570000000     0.975660000000    -0.192259   
N31      N      0.323770000000     0.434850000000     0.979320000000    -0.243139   
N32      N      0.324250000000     0.601100000000     0.962670000000    -0.191405   
O1       O      0.292300000000     0.312350000000     0.015930000000    -0.459489   
O2       O      0.326190000000     0.333130000000     0.066650000000    -0.502394   
O3       O      0.307730000000     0.342540000000     0.892590000000    -0.482428   
O4       O      0.302760000000     0.384800000000     0.973020000000    -0.450357   
O5       O      0.375650000000     0.316010000000     0.007830000000    -0.499007   
O6       O      0.351230000000     0.388450000000     0.984780000000    -0.506613   
O7       O      0.320270000000     0.297100000000     0.921680000000    -0.487814   
O8       O      0.377850000000     0.339270000000     0.931790000000    -0.460664   
O9       O      0.295670000000     0.714900000000     0.927000000000    -0.493279   
O10      O      0.336680000000     0.707140000000     0.882050000000    -0.451897   
O11      O      0.324830000000     0.697190000000     0.061580000000    -0.500862   
O12      O      0.310010000000     0.650840000000     0.990750000000    -0.4911     
O13      O      0.382360000000     0.722670000000     0.951800000000    -0.479553   
O14      O      0.349560000000     0.647050000000     0.940640000000    -0.498651   
O15      O      0.319600000000     0.739140000000     0.015490000000    -0.45691    
O16      O      0.385140000000     0.686080000000     0.010310000000    -0.502067   
O17      O      0.707750000000     0.299500000000     0.019590000000    -0.497293   
O18      O      0.692390000000     0.338230000000     0.066020000000    -0.489321   
O19      O      0.691170000000     0.298190000000     0.917600000000    -0.493714   
O20      O      0.635080000000     0.323690000000     0.934080000000    -0.492795   
O21      O      0.704910000000     0.384550000000     0.992210000000    -0.485658   
O22      O      0.633620000000     0.331970000000     0.018560000000    -0.500653   
O23      O      0.714940000000     0.341400000000     0.906130000000    -0.457536   
O24      O      0.663480000000     0.385810000000     0.945460000000    -0.498809   
O25      O      0.725970000000     0.695780000000     0.030620000000    -0.498475   
O26      O      0.697710000000     0.736400000000     0.023770000000    -0.451125   
O27      O      0.726380000000     0.697800000000     0.901780000000    -0.496468   
O28      O      0.684920000000     0.649110000000     0.920640000000    -0.449678   
O29      O      0.643090000000     0.700470000000     0.013380000000    -0.498211   
O30      O      0.693290000000     0.647550000000     0.005260000000    -0.498395   
O31      O      0.693500000000     0.734800000000     0.902660000000    -0.441283   
O32      O      0.640470000000     0.703800000000     0.927900000000    -0.441631   
O33      O      0.790370000000     0.218720000000     0.436210000000    -0.458436   
O34      O      0.828500000000     0.204320000000     0.388780000000    -0.490757   
O35      O      0.831640000000     0.226600000000     0.550090000000    -0.487623   
O36      O      0.820610000000     0.145520000000     0.522480000000    -0.455728   
O37      O      0.873720000000     0.220500000000     0.464100000000    -0.450146   
O38      O      0.822210000000     0.144860000000     0.436850000000    -0.504667   
O39      O      0.789980000000     0.200870000000     0.538000000000    -0.473522   
O40      O      0.877940000000     0.175990000000     0.502560000000    -0.50654    
O41      O      0.819110000000     0.796820000000     0.416730000000    -0.493831   
O42      O      0.829500000000     0.838960000000     0.374200000000    -0.493707   
O43      O      0.842390000000     0.813770000000     0.547740000000    -0.492147   
O44      O      0.884420000000     0.807810000000     0.464900000000    -0.454885   
O45      O      0.814330000000     0.882320000000     0.439630000000    -0.487504   
O46      O      0.888660000000     0.856930000000     0.452870000000    -0.507856   
O47      O      0.797820000000     0.824630000000     0.516080000000    -0.499808   
O48      O      0.844150000000     0.884530000000     0.508260000000    -0.494683   
O49      O      0.209160000000     0.797010000000     0.514430000000    -0.498524   
O50      O      0.204210000000     0.839480000000     0.558470000000    -0.493366   
O51      O      0.192110000000     0.826190000000     0.380290000000    -0.487341   
O52      O      0.146530000000     0.811740000000     0.450830000000    -0.489644   
O53      O      0.215420000000     0.886510000000     0.488960000000    -0.495134   
O54      O      0.142950000000     0.851160000000     0.502640000000    -0.502305   
O55      O      0.234050000000     0.823160000000     0.425420000000    -0.496518   
O56      O      0.179590000000     0.887260000000     0.430060000000    -0.465114   
O57      O      0.202230000000     0.237710000000     0.430100000000    -0.502254   
O58      O      0.194030000000     0.196040000000     0.385600000000    -0.50281    
O59      O      0.184670000000     0.231630000000     0.543370000000    -0.501703   
O60      O      0.134920000000     0.194050000000     0.520460000000    -0.490637   
O61      O      0.210760000000     0.151550000000     0.473540000000    -0.471998   
O62      O      0.134060000000     0.212000000000     0.439900000000    -0.498736   
O63      O      0.218380000000     0.195480000000     0.540190000000    -0.455251   
O64      O      0.161910000000     0.146010000000     0.471680000000    -0.499281   


