data_structure

_audit_creation_method RASPA-1.0
_audit_creation_date 2023-6-5
_audit_author_name 'Poobodin Mano'

_cell_length_a    43.2979
_cell_length_b    43.6272
_cell_length_c    24.1813
_cell_angle_alpha 89.6956
_cell_angle_beta  90.3044
_cell_angle_gamma 89.9995
_cell_volume      45676.4

_symmetry_cell_setting          triclinic
_symmetry_space_group_name_Hall 'P 1'
_symmetry_space_group_name_H-M  'P 1'
_symmetry_Int_Tables_number     1

_symmetry_equiv_pos_as_xyz 'x,y,z'

loop_
_atom_site_label
_atom_site_type_symbol
_atom_site_fract_x
_atom_site_fract_y
_atom_site_fract_z
_atom_site_charge
C1       C      0.335580000000     0.400060000000     0.980380000000     0.411802   
C2       C      0.308620000000     0.311830000000     0.890600000000     0.41525    
C3       C      0.398370000000     0.329450000000     0.976420000000     0.414247   
C4       C      0.306960000000     0.312100000000     0.066500000000     0.415558   
C5       C      0.326990000000     0.624620000000     0.980540000000     0.408913   
C6       C      0.300400000000     0.708140000000     0.075910000000     0.420137   
C7       C      0.389520000000     0.688930000000     0.985210000000     0.406917   
C8       C      0.304760000000     0.712030000000     0.888880000000     0.415314   
C9       C      0.625270000000     0.320330000000     0.979150000000     0.422249   
C10      C      0.715040000000     0.295340000000     0.899430000000     0.415498   
C11      C      0.698270000000     0.386390000000     0.987990000000     0.40979    
C12      C      0.716900000000     0.297390000000     0.070060000000     0.423297   
C13      C      0.692940000000     0.610700000000     0.993950000000     0.413327   
C14      C      0.695350000000     0.699010000000     0.890260000000     0.406671   
C15      C      0.615790000000     0.676910000000     0.979760000000     0.416831   
C16      C      0.710020000000     0.695710000000     0.071150000000     0.418494   
C17      C      0.822440000000     0.109460000000     0.493190000000     0.410441   
C18      C      0.808930000000     0.196320000000     0.577060000000     0.415002   
C19      C      0.897120000000     0.175520000000     0.478990000000     0.421068   
C20      C      0.809880000000     0.197240000000     0.396760000000     0.412177   
C21      C      0.888720000000     0.817980000000     0.482090000000     0.417448   
C22      C      0.793740000000     0.798900000000     0.570910000000     0.415396   
C23      C      0.818300000000     0.884770000000     0.501390000000     0.418489   
C24      C      0.804460000000     0.794870000000     0.395010000000     0.411777   
C25      C      0.115560000000     0.833930000000     0.478660000000     0.411999   
C26      C      0.204880000000     0.809390000000     0.395110000000     0.409152   
C27      C      0.184520000000     0.900710000000     0.482470000000     0.415588   
C28      C      0.209030000000     0.811110000000     0.564310000000     0.419398   
C29      C      0.123040000000     0.193630000000     0.464720000000     0.410079   
C30      C      0.212620000000     0.211000000000     0.568820000000     0.408413   
C31      C      0.193170000000     0.125430000000     0.495760000000     0.414362   
C32      C      0.206190000000     0.213920000000     0.385910000000     0.41887    
C33      C      0.192640000000     0.949980000000     0.437410000000     0.102166   
C34      C      0.186860000000     0.946090000000     0.534950000000     0.0732366  
C35      C      0.195520000000     0.981880000000     0.441890000000    -0.0989997  
C36      C      0.217160000000     0.046750000000     0.467390000000    -0.0858315  
C37      C      0.189470000000     0.977800000000     0.540270000000    -0.0897813  
C38      C      0.195460000000     0.029990000000     0.497890000000     0.0332807  
C39      C      0.193760000000     0.996100000000     0.493440000000     0.0409101  
C40      C      0.216880000000     0.078750000000     0.468880000000     0.0729472  
C41      C      0.174740000000     0.078000000000     0.531140000000     0.073014   
C42      C      0.174520000000     0.045990000000     0.530950000000    -0.0858154  
C43      C      0.938130000000     0.803910000000     0.522910000000     0.102445   
C44      C      0.935270000000     0.830680000000     0.437160000000     0.0730187  
C45      C      0.970440000000     0.805830000000     0.521670000000    -0.0987988  
C46      C      0.035800000000     0.830110000000     0.527240000000    -0.0855336  
C47      C      0.967380000000     0.832930000000     0.435190000000    -0.0893977  
C48      C      0.019650000000     0.824200000000     0.478030000000     0.0331359  
C49      C      0.985410000000     0.820850000000     0.478140000000     0.0408385  
C50      C      0.067870000000     0.833320000000     0.526630000000     0.0728246  
C51      C      0.068600000000     0.825330000000     0.429740000000     0.0723295  
C52      C      0.036510000000     0.821850000000     0.428870000000    -0.085457   
C53      C      0.831620000000     0.932880000000     0.545630000000     0.102737   
C54      C      0.796890000000     0.931320000000     0.469190000000     0.0733288  
C55      C      0.830190000000     0.964970000000     0.545250000000    -0.0992536  
C56      C      0.812540000000     0.032340000000     0.550510000000    -0.0856161  
C57      C      0.795150000000     0.963230000000     0.468070000000    -0.089831   
C58      C      0.812710000000     0.014520000000     0.502460000000     0.0333906  
C59      C      0.812340000000     0.980490000000     0.505700000000     0.0409418  
C60      C      0.815090000000     0.064200000000     0.546600000000     0.0727093  
C61      C      0.817200000000     0.061330000000     0.448790000000     0.0740697  
C62      C      0.814620000000     0.029460000000     0.451150000000    -0.0856855  
C63      C      0.947700000000     0.154230000000     0.459530000000     0.102813   
C64      C      0.941650000000     0.206580000000     0.484160000000     0.0736855  
C65      C      0.979610000000     0.158620000000     0.454790000000    -0.0993461  
C66      C      0.044120000000     0.176310000000     0.420920000000    -0.0855936  
C67      C      0.973380000000     0.211470000000     0.479440000000    -0.0897398  
C68      C      0.026870000000     0.191610000000     0.461200000000     0.0331738  
C69      C      0.992820000000     0.187350000000     0.464620000000     0.0412381  
C70      C      0.076300000000     0.178080000000     0.421580000000     0.0732954  
C71      C      0.074900000000     0.211240000000     0.498890000000     0.0729079  
C72      C      0.042670000000     0.209790000000     0.499730000000    -0.0849381  
C73      C      0.749310000000     0.796780000000     0.632150000000     0.101938   
C74      C      0.790660000000     0.761170000000     0.640760000000     0.0738228  
C75      C      0.734250000000     0.782530000000     0.676680000000    -0.0989802  
C76      C      0.717770000000     0.759220000000     0.792360000000    -0.0854732  
C77      C      0.776070000000     0.746660000000     0.684890000000    -0.0898262  
C78      C      0.731990000000     0.741990000000     0.750860000000     0.0331639  
C79      C      0.747530000000     0.757230000000     0.703410000000     0.0409288  
C80      C      0.704970000000     0.744430000000     0.838280000000     0.0726817  
C81      C      0.719060000000     0.696000000000     0.802240000000     0.0731187  
C82      C      0.732100000000     0.709990000000     0.755900000000    -0.0855266  
C83      C      0.751620000000     0.726970000000     0.108540000000     0.102223   
C84      C      0.714060000000     0.704130000000     0.167170000000     0.0728638  
C85      C      0.765580000000     0.740710000000     0.154640000000    -0.0994116  
C86      C      0.776210000000     0.782250000000     0.254100000000    -0.0855328  
C87      C      0.727760000000     0.717340000000     0.213570000000    -0.0898729  
C88      C      0.767780000000     0.751270000000     0.256380000000     0.0329896  
C89      C      0.753640000000     0.736100000000     0.207610000000     0.0409354  
C90      C      0.788570000000     0.796460000000     0.300860000000     0.072747   
C91      C      0.785130000000     0.749970000000     0.351750000000     0.0720594  
C92      C      0.772450000000     0.735100000000     0.305920000000    -0.085672   
C93      C      0.736280000000     0.249470000000     0.857740000000     0.103835   
C94      C      0.734950000000     0.296950000000     0.808910000000     0.0739229  
C95      C      0.749720000000     0.235390000000     0.811780000000    -0.099853   
C96      C      0.795770000000     0.219050000000     0.720420000000    -0.0861366  
C97      C      0.747930000000     0.283310000000     0.762520000000    -0.0901022  
C98      C      0.769440000000     0.237450000000     0.714780000000     0.0333602  
C99      C      0.755470000000     0.252230000000     0.763650000000     0.0413223  
C100     C      0.808820000000     0.205580000000     0.673780000000     0.0737822  
C101     C      0.769940000000     0.227490000000     0.616470000000     0.0728357  
C102     C      0.756570000000     0.241680000000     0.662090000000    -0.0861642  
C103     C      0.763060000000     0.283080000000     0.121610000000     0.10486    
C104     C      0.713050000000     0.268730000000     0.152610000000     0.0747584  
C105     C      0.776240000000     0.268710000000     0.168050000000    -0.0996951  
C106     C      0.797150000000     0.252030000000     0.283960000000    -0.0854309  
C107     C      0.725660000000     0.254490000000     0.199220000000    -0.0900752  
C108     C      0.771440000000     0.239260000000     0.257170000000     0.0331896  
C109     C      0.757610000000     0.254360000000     0.207560000000     0.0416931  
C110     C      0.809820000000     0.237570000000     0.330460000000     0.0729699  
C111     C      0.772100000000     0.198280000000     0.325260000000     0.0736839  
C112     C      0.759010000000     0.211970000000     0.278390000000    -0.0854596  
C113     C      0.719940000000     0.565300000000     0.961960000000     0.101534   
C114     C      0.681680000000     0.562150000000     0.031990000000     0.0732574  
C115     C      0.722550000000     0.533260000000     0.962230000000    -0.0991405  
C116     C      0.704190000000     0.466480000000     0.944020000000    -0.0856798  
C117     C      0.684160000000     0.530310000000     0.033330000000    -0.0897896  
C118     C      0.705110000000     0.481520000000     0.995020000000     0.033004   
C119     C      0.704270000000     0.515480000000     0.997400000000     0.0407063  
C120     C      0.702470000000     0.434540000000     0.942400000000     0.0722538  
C121     C      0.703880000000     0.431960000000     0.040390000000     0.0726423  
C122     C      0.705310000000     0.463880000000     0.043550000000    -0.0860363  
C123     C      0.254200000000     0.804940000000     0.623500000000     0.102855   
C124     C      0.209230000000     0.774460000000     0.636290000000     0.0736263  
C125     C      0.268230000000     0.790370000000     0.668920000000    -0.0993668  
C126     C      0.283620000000     0.770240000000     0.786200000000    -0.0857629  
C127     C      0.222780000000     0.759660000000     0.681500000000    -0.0898852  
C128     C      0.266890000000     0.752850000000     0.747800000000     0.0331114  
C129     C      0.252510000000     0.767690000000     0.698600000000     0.0411631  
C130     C      0.296340000000     0.756140000000     0.832970000000     0.0727271  
C131     C      0.276720000000     0.707930000000     0.804540000000     0.0721292  
C132     C      0.263640000000     0.721300000000     0.757320000000    -0.0857956  
C133     C      0.255420000000     0.716210000000     0.133770000000     0.102041   
C134     C      0.304290000000     0.737500000000     0.157300000000     0.0719441  
C135     C      0.242300000000     0.730320000000     0.179970000000    -0.0993003  
C136     C      0.224000000000     0.749440000000     0.295780000000    -0.0857584  
C137     C      0.291690000000     0.751720000000     0.203500000000    -0.0899009  
C138     C      0.246220000000     0.764200000000     0.263170000000     0.0330909  
C139     C      0.260300000000     0.748450000000     0.215090000000     0.0407532  
C140     C      0.210470000000     0.764880000000     0.339910000000     0.0728078  
C141     C      0.240480000000     0.809110000000     0.320730000000     0.0725969  
C142     C      0.254480000000     0.794360000000     0.276300000000    -0.0854489  
C143     C      0.434850000000     0.658460000000     0.974670000000     0.100916   
C144     C      0.438090000000     0.712920000000     0.981090000000     0.0754037  
C145     C      0.467150000000     0.656430000000     0.976550000000    -0.0979938  
C146     C      0.535000000000     0.660880000000     0.945490000000    -0.0856839  
C147     C      0.470240000000     0.711530000000     0.981620000000    -0.0895413  
C148     C      0.519530000000     0.681460000000     0.979990000000     0.0333103  
C149     C      0.485200000000     0.683080000000     0.980210000000     0.0403352  
C150     C      0.567240000000     0.659870000000     0.945580000000     0.0729634  
C151     C      0.569390000000     0.699230000000     0.012720000000     0.0731976  
C152     C      0.537180000000     0.700820000000     0.013750000000    -0.0854871  
C153     C      0.266990000000     0.308900000000     0.822980000000     0.101942   
C154     C      0.308920000000     0.273730000000     0.821650000000     0.0728052  
C155     C      0.253740000000     0.294110000000     0.777320000000    -0.0988591  
C156     C      0.221710000000     0.248730000000     0.702550000000    -0.0853756  
C157     C      0.296090000000     0.258650000000     0.776260000000    -0.0893489  
C158     C      0.253790000000     0.252750000000     0.705540000000     0.0329965  
C159     C      0.268100000000     0.268670000000     0.753610000000     0.0408496  
C160     C      0.208430000000     0.234530000000     0.656660000000     0.0727474  
C161     C      0.257780000000     0.227430000000     0.616730000000     0.0721264  
C162     C      0.271870000000     0.241680000000     0.662010000000    -0.0849266  
C163     C      0.222500000000     0.211760000000     0.290150000000     0.103522   
C164     C      0.226460000000     0.257880000000     0.341650000000     0.0727961  
C165     C      0.236550000000     0.226190000000     0.244940000000    -0.0995577  
C166     C      0.283700000000     0.255100000000     0.169520000000    -0.0855696  
C167     C      0.240540000000     0.272690000000     0.297070000000    -0.0893647  
C168     C      0.262220000000     0.271570000000     0.200770000000     0.0329735  
C169     C      0.246160000000     0.256730000000     0.248180000000     0.0410468  
C170     C      0.298380000000     0.269030000000     0.124730000000     0.0727823  
C171     C      0.271470000000     0.315420000000     0.141020000000     0.0721433  
C172     C      0.256260000000     0.302150000000     0.186070000000    -0.0852764  
C173     C      0.577330000000     0.307420000000     0.931780000000     0.102267   
C174     C      0.577280000000     0.329910000000     0.021150000000     0.0731802  
C175     C      0.544930000000     0.307750000000     0.931220000000    -0.0993101  
C176     C      0.478210000000     0.330020000000     0.927640000000    -0.08589    
C177     C      0.545120000000     0.330360000000     0.021500000000    -0.0899373  
C178     C      0.494240000000     0.320710000000     0.975330000000     0.0333275  
C179     C      0.528530000000     0.319420000000     0.976090000000     0.0407545  
C180     C      0.446050000000     0.332490000000     0.928510000000     0.0736742  
C181     C      0.445150000000     0.316110000000     0.022170000000     0.0739593  
C182     C      0.477270000000     0.313470000000     0.022800000000    -0.0858625  
C183     C      0.358030000000     0.579270000000     0.988730000000     0.104831   
C184     C      0.303060000000     0.576380000000     0.982090000000     0.0753423  
C185     C      0.359760000000     0.547170000000     0.987360000000    -0.0994562  
C186     C      0.352040000000     0.479310000000     0.019820000000    -0.0855802  
C187     C      0.304300000000     0.544500000000     0.980400000000    -0.0904359  
C188     C      0.334240000000     0.495610000000     0.981140000000     0.0329325  
C189     C      0.332840000000     0.529560000000     0.982390000000     0.0412097  
C190     C      0.352120000000     0.447280000000     0.019150000000     0.0729897  
C191     C      0.318090000000     0.447200000000     0.941940000000     0.0727479  
C192     C      0.317150000000     0.479190000000     0.941900000000    -0.0855643  
H1       H      0.233630000000     0.090940000000     0.443880000000     0.0307347  
H2       H      0.183460000000     0.933020000000     0.572710000000     0.0317613  
H3       H      0.157300000000     0.033910000000     0.555010000000     0.0529956  
H4       H      0.188260000000     0.987900000000     0.581030000000     0.0541606  
H5       H      0.234080000000     0.035220000000     0.442040000000     0.0533206  
H6       H      0.198600000000     0.995660000000     0.404880000000     0.0575844  
H7       H      0.157600000000     0.089580000000     0.556040000000     0.0299529  
H8       H      0.167150000000     0.933700000000     0.345930000000     0.0410253  
H9       H      0.079460000000     0.837900000000     0.565590000000     0.0310652  
H10      H      0.922440000000     0.841030000000     0.403240000000     0.030437   
H11      H      0.025090000000     0.816950000000     0.389960000000     0.0523591  
H12      H      0.977900000000     0.844890000000     0.400730000000     0.0534892  
H13      H      0.023740000000     0.832670000000     0.566060000000     0.0533307  
H14      H      0.983890000000     0.795290000000     0.554590000000     0.0572942  
H15      H      0.080830000000     0.823230000000     0.390930000000     0.0301668  
H16      H      0.919490000000     0.752890000000     0.564580000000     0.0388884  
H17      H      0.815290000000     0.077190000000     0.584720000000     0.0304243  
H18      H      0.783480000000     0.919100000000     0.438360000000     0.0324635  
H19      H      0.815120000000     0.016580000000     0.413000000000     0.0532872  
H20      H      0.780530000000     0.974310000000     0.437450000000     0.0540471  
H21      H      0.810620000000     0.021760000000     0.590960000000     0.0523     
H22      H      0.843660000000     0.977820000000     0.575090000000     0.0576765  
H23      H      0.819240000000     0.071980000000     0.408350000000     0.0316134  
H24      H      0.835940000000     0.910810000000     0.644130000000     0.0378226  
H25      H      0.088820000000     0.165290000000     0.390570000000     0.0303029  
H26      H      0.927640000000     0.226150000000     0.495540000000     0.0314077  
H27      H      0.030380000000     0.221900000000     0.531800000000     0.0529884  
H28      H      0.982520000000     0.234180000000     0.486980000000     0.0537423  
H29      H      0.032890000000     0.162650000000     0.389420000000     0.052435   
H30      H      0.994210000000     0.139280000000     0.444690000000     0.0575936  
H31      H      0.086320000000     0.224840000000     0.530340000000     0.0322908  
H32      H      0.926940000000     0.113130000000     0.393180000000     0.0421069  
H33      H      0.694730000000     0.758530000000     0.870120000000     0.0296921  
H34      H      0.812830000000     0.751950000000     0.628390000000     0.0330687  
H35      H      0.742320000000     0.695770000000     0.724310000000     0.0532792  
H36      H      0.787440000000     0.727430000000     0.704920000000     0.0543806  
H37      H      0.717330000000     0.784020000000     0.790270000000     0.0521784  
H38      H      0.711990000000     0.791030000000     0.690040000000     0.0571416  
H39      H      0.719990000000     0.671190000000     0.804880000000     0.0330922  
H40      H      0.739410000000     0.854840000000     0.628490000000     0.0395404  
H41      H      0.794510000000     0.820550000000     0.297670000000     0.0315272  
H42      H      0.693800000000     0.690040000000     0.174210000000     0.0316029  
H43      H      0.766520000000     0.711040000000     0.309190000000     0.0527732  
H44      H      0.717650000000     0.713370000000     0.253860000000     0.0542804  
H45      H      0.772690000000     0.795640000000     0.216740000000     0.0529501  
H46      H      0.785930000000     0.754880000000     0.149160000000     0.0574477  
H47      H      0.788370000000     0.736700000000     0.389390000000     0.0297309  
H48      H      0.755870000000     0.760450000000     0.021100000000     0.041557   
H49      H      0.829330000000     0.191640000000     0.679630000000     0.031082   
H50      H      0.729490000000     0.321170000000     0.805800000000     0.0327516  
H51      H      0.736070000000     0.255580000000     0.656230000000     0.0534381  
H52      H      0.752360000000     0.297160000000     0.726100000000     0.0547699  
H53      H      0.806480000000     0.215440000000     0.760530000000     0.0537376  
H54      H      0.755500000000     0.211220000000     0.813430000000     0.0579984  
H55      H      0.759250000000     0.231180000000     0.576320000000     0.0299764  
H56      H      0.702800000000     0.212640000000     0.915130000000     0.0427359  
H57      H      0.829660000000     0.248210000000     0.350060000000     0.0303392  
H58      H      0.688090000000     0.268320000000     0.148580000000     0.0313715  
H59      H      0.739480000000     0.200960000000     0.258610000000     0.0528446  
H60      H      0.710250000000     0.244060000000     0.229000000000     0.0540665  
H61      H      0.807260000000     0.273340000000     0.269680000000     0.0523904  
H62      H      0.801150000000     0.268290000000     0.172680000000     0.0574     
H63      H      0.761830000000     0.177190000000     0.340350000000     0.0314201  
H64      H      0.794760000000     0.329140000000     0.087210000000     0.0425857  
H65      H      0.701120000000     0.423720000000     0.902180000000     0.0315821  
H66      H      0.665160000000     0.572400000000     0.059930000000     0.0312487  
H67      H      0.706350000000     0.474670000000     0.083760000000     0.0527378  
H68      H      0.669530000000     0.517350000000     0.061140000000     0.0541705  
H69      H      0.703760000000     0.479320000000     0.905560000000     0.0536892  
H70      H      0.738810000000     0.522180000000     0.934850000000     0.0574041  
H71      H      0.703710000000     0.419070000000     0.078860000000     0.0303336  
H72      H      0.771700000000     0.592110000000     0.943020000000     0.0389312  
H73      H      0.308880000000     0.770430000000     0.861970000000     0.0307012  
H74      H      0.185960000000     0.767490000000     0.625240000000     0.0319351  
H75      H      0.251230000000     0.706950000000     0.728330000000     0.0525931  
H76      H      0.209650000000     0.742420000000     0.703610000000     0.0541031  
H77      H      0.286380000000     0.794750000000     0.780800000000     0.053394   
H78      H      0.291580000000     0.796580000000     0.680770000000     0.0575209  
H79      H      0.273650000000     0.683480000000     0.810600000000     0.0294041  
H80      H      0.293320000000     0.819050000000     0.547960000000     0.0392709  
H81      H      0.193350000000     0.752700000000     0.364140000000     0.0304937  
H82      H      0.328750000000     0.741000000000     0.150120000000     0.0298486  
H83      H      0.271260000000     0.806770000000     0.251800000000     0.0529221  
H84      H      0.306600000000     0.765120000000     0.230130000000     0.053499   
H85      H      0.217230000000     0.726000000000     0.287590000000     0.0524083  
H86      H      0.217830000000     0.727540000000     0.187880000000     0.0574449  
H87      H      0.247340000000     0.832520000000     0.329330000000     0.0317984  
H88      H      0.230640000000     0.663940000000     0.113140000000     0.0415426  
H89      H      0.578340000000     0.643600000000     0.918360000000     0.0297613  
H90      H      0.427260000000     0.735290000000     0.983760000000     0.0270009  
H91      H      0.526200000000     0.716890000000     0.041420000000     0.0529145  
H92      H      0.483290000000     0.732700000000     0.982810000000     0.0539611  
H93      H      0.522340000000     0.645880000000     0.917940000000     0.0519306  
H94      H      0.478110000000     0.634210000000     0.972840000000     0.0547276  
H95      H      0.582210000000     0.714450000000     0.039720000000     0.0305051  
H96      H      0.432790000000     0.608390000000     0.916080000000     0.0288968  
H97      H      0.183500000000     0.232040000000     0.655940000000     0.0325589  
H98      H      0.330560000000     0.264780000000     0.837750000000     0.0315451  
H99      H      0.296720000000     0.244520000000     0.662270000000     0.0527364  
H100     H      0.307900000000     0.238870000000     0.759670000000     0.0536801  
H101     H      0.206850000000     0.256340000000     0.735640000000     0.052534   
H102     H      0.232370000000     0.302840000000     0.759810000000     0.0574087  
H103     H      0.272480000000     0.219450000000     0.583620000000     0.0297848  
H104     H      0.226280000000     0.331890000000     0.887700000000     0.040009   
H105     H      0.314830000000     0.255460000000     0.101700000000     0.0307352  
H106     H      0.223190000000     0.271160000000     0.378960000000     0.0301674  
H107     H      0.239610000000     0.315660000000     0.208640000000     0.0524972  
H108     H      0.247660000000     0.296340000000     0.301570000000     0.0538132  
H109     H      0.289470000000     0.231600000000     0.179890000000     0.0527172  
H110     H      0.239620000000     0.213570000000     0.206860000000     0.0572648  
H111     H      0.266170000000     0.339070000000     0.130750000000     0.0296316  
H112     H      0.233380000000     0.153850000000     0.294020000000     0.0445119  
H113     H      0.434480000000     0.340170000000     0.891040000000     0.0304489  
H114     H      0.588910000000     0.339020000000     0.057350000000     0.0312577  
H115     H      0.488720000000     0.305740000000     0.060300000000     0.0530865  
H116     H      0.533370000000     0.339890000000     0.056910000000     0.0540384  
H117     H      0.490450000000     0.336120000000     0.890210000000     0.0531515  
H118     H      0.532520000000     0.298620000000     0.895890000000     0.0573947  
H119     H      0.432870000000     0.310490000000     0.059850000000     0.0312523  
H120     H      0.599590000000     0.260800000000     0.881100000000     0.0403656  
H121     H      0.365960000000     0.435420000000     0.050040000000     0.0301327  
H122     H      0.280510000000     0.587180000000     0.979470000000     0.0273171  
H123     H      0.303270000000     0.491020000000     0.911090000000     0.0535638  
H124     H      0.282970000000     0.531590000000     0.977910000000     0.0546741  
H125     H      0.365340000000     0.491210000000     0.051130000000     0.0526807  
H126     H      0.382020000000     0.535950000000     0.991270000000     0.0570312  
H127     H      0.304590000000     0.435290000000     0.910850000000     0.0319343  
H128     H      0.391370000000     0.611580000000     0.060780000000     0.0450518  
In1      In     0.336660000000     0.338000000000     0.979410000000     2.40861    
In2      In     0.327600000000     0.686250000000     0.982840000000     2.39095    
In3      In     0.687930000000     0.325220000000     0.984110000000     2.41929    
In4      In     0.678050000000     0.670980000000     0.985020000000     2.40888    
In5      In     0.834740000000     0.170130000000     0.487240000000     2.4096     
In6      In     0.826260000000     0.823740000000     0.486250000000     2.41457    
In7      In     0.177940000000     0.838860000000     0.480210000000     2.41804    
In8      In     0.184640000000     0.186340000000     0.479070000000     2.40756    
N1       N      0.188040000000     0.932050000000     0.484170000000    -0.197667   
N2       N      0.195290000000     0.094180000000     0.499360000000    -0.194914   
N3       N      0.920490000000     0.817050000000     0.481090000000    -0.198117   
N4       N      0.084090000000     0.830930000000     0.478280000000    -0.194517   
N5       N      0.815600000000     0.916060000000     0.506350000000    -0.19821    
N6       N      0.817940000000     0.078460000000     0.496190000000    -0.193361   
N7       N      0.928640000000     0.178370000000     0.474150000000    -0.199161   
N8       N      0.091520000000     0.194770000000     0.461140000000    -0.19374    
N9       N      0.777660000000     0.786000000000     0.614160000000    -0.197319   
N10      N      0.706100000000     0.713120000000     0.843490000000    -0.192617   
N11      N      0.725510000000     0.708880000000     0.114850000000    -0.198913   
N12      N      0.792870000000     0.780440000000     0.349280000000    -0.194603   
N13      N      0.728700000000     0.280340000000     0.856060000000    -0.197235   
N14      N      0.795920000000     0.209730000000     0.622330000000    -0.194784   
N15      N      0.731300000000     0.283250000000     0.114160000000    -0.198287   
N16      N      0.797310000000     0.210990000000     0.350940000000    -0.19392    
N17      N      0.698730000000     0.579690000000     0.995900000000    -0.197479   
N18      N      0.701850000000     0.417510000000     0.990230000000    -0.194327   
N19      N      0.224430000000     0.797120000000     0.607510000000    -0.198454   
N20      N      0.292740000000     0.725290000000     0.842140000000    -0.19596    
N21      N      0.286490000000     0.720210000000     0.121980000000    -0.199821   
N22      N      0.218580000000     0.794490000000     0.352060000000    -0.193584   
N23      N      0.420730000000     0.686720000000     0.979950000000    -0.196201   
N24      N      0.584240000000     0.678810000000     0.979090000000    -0.195382   
N25      N      0.294630000000     0.298520000000     0.845430000000    -0.1976     
N26      N      0.226300000000     0.224160000000     0.613990000000    -0.193573   
N27      N      0.218070000000     0.227510000000     0.339130000000    -0.198554   
N28      N      0.292270000000     0.298920000000     0.110610000000    -0.195372   
N29      N      0.593530000000     0.318900000000     0.976740000000    -0.200006   
N30      N      0.429750000000     0.325880000000     0.975580000000    -0.194049   
N31      N      0.329530000000     0.593550000000     0.984030000000    -0.197428   
N32      N      0.335270000000     0.431420000000     0.980510000000    -0.194024   
O1       O      0.302820000000     0.339640000000     0.052100000000    -0.505785   
O2       O      0.325910000000     0.297720000000     0.036890000000    -0.504857   
O3       O      0.296900000000     0.333460000000     0.917700000000    -0.49856    
O4       O      0.321790000000     0.384410000000     0.944060000000    -0.494189   
O5       O      0.382410000000     0.324060000000     0.018990000000    -0.499434   
O6       O      0.349730000000     0.384370000000     0.016490000000    -0.501751   
O7       O      0.334600000000     0.303220000000     0.908950000000    -0.499196   
O8       O      0.383080000000     0.338980000000     0.935090000000    -0.500419   
O9       O      0.319240000000     0.727040000000     0.925070000000    -0.507258   
O10      O      0.301950000000     0.683890000000     0.899830000000    -0.509797   
O11      O      0.286150000000     0.693450000000     0.039180000000    -0.508945   
O12      O      0.304180000000     0.639500000000     0.999150000000    -0.480987   
O13      O      0.373790000000     0.711060000000     0.965890000000    -0.47882    
O14      O      0.347660000000     0.640800000000     0.958940000000    -0.482839   
O15      O      0.328750000000     0.711610000000     0.065720000000    -0.511495   
O16      O      0.374020000000     0.668040000000     0.007860000000    -0.485963   
O17      O      0.730710000000     0.314430000000     0.035840000000    -0.505124   
O18      O      0.688240000000     0.294750000000     0.060800000000    -0.504605   
O19      O      0.703910000000     0.281790000000     0.940990000000    -0.503639   
O20      O      0.642740000000     0.311730000000     0.940840000000    -0.509682   
O21      O      0.697620000000     0.369660000000     0.030670000000    -0.502691   
O22      O      0.639630000000     0.331150000000     0.020110000000    -0.508379   
O23      O      0.711990000000     0.324160000000     0.900480000000    -0.492522   
O24      O      0.694210000000     0.372170000000     0.943230000000    -0.49538    
O25      O      0.718770000000     0.697520000000     0.021700000000    -0.506037   
O26      O      0.685170000000     0.680960000000     0.077050000000    -0.50181    
O27      O      0.697170000000     0.670370000000     0.897680000000    -0.488948   
O28      O      0.706720000000     0.629060000000     0.962170000000    -0.490222   
O29      O      0.632550000000     0.693510000000     0.010220000000    -0.502767   
O30      O      0.672010000000     0.623160000000     0.022250000000    -0.503509   
O31      O      0.684050000000     0.713590000000     0.930460000000    -0.498067   
O32      O      0.630520000000     0.657830000000     0.951070000000    -0.508824   
O33      O      0.798500000000     0.173460000000     0.418660000000    -0.493947   
O34      O      0.833770000000     0.207350000000     0.420690000000    -0.504233   
O35      O      0.833830000000     0.181300000000     0.579480000000    -0.497324   
O36      O      0.824230000000     0.126230000000     0.535540000000    -0.500456   
O37      O      0.880080000000     0.196910000000     0.496180000000    -0.498198   
O38      O      0.826370000000     0.123470000000     0.447900000000    -0.490234   
O39      O      0.797030000000     0.198000000000     0.529370000000    -0.508889   
O40      O      0.882440000000     0.151710000000     0.466050000000    -0.510832   
O41      O      0.809440000000     0.781130000000     0.440220000000    -0.509097   
O42      O      0.810680000000     0.823120000000     0.395720000000    -0.494941   
O43      O      0.819950000000     0.789220000000     0.556210000000    -0.493574   
O44      O      0.872900000000     0.810100000000     0.523360000000    -0.493463   
O45      O      0.802990000000     0.869520000000     0.466360000000    -0.494783   
O46      O      0.872760000000     0.828500000000     0.442460000000    -0.509002   
O47      O      0.783960000000     0.821150000000     0.542260000000    -0.50533    
O48      O      0.837250000000     0.868870000000     0.528970000000    -0.509202   
O49      O      0.182000000000     0.803580000000     0.549910000000    -0.502677   
O50      O      0.220140000000     0.832740000000     0.535980000000    -0.505815   
O51      O      0.184440000000     0.797090000000     0.425000000000    -0.501999   
O52      O      0.131670000000     0.832400000000     0.435390000000    -0.503338   
O53      O      0.182380000000     0.884420000000     0.525640000000    -0.502711   
O54      O      0.130920000000     0.838150000000     0.522460000000    -0.502242   
O55      O      0.211600000000     0.836610000000     0.408110000000    -0.495268   
O56      O      0.182860000000     0.885580000000     0.438290000000    -0.498857   
O57      O      0.199940000000     0.228700000000     0.429290000000    -0.505691   
O58      O      0.201600000000     0.185540000000     0.390360000000    -0.501115   
O59      O      0.183690000000     0.208650000000     0.563820000000    -0.494457   
O60      O      0.138230000000     0.208030000000     0.500930000000    -0.488375   
O61      O      0.210810000000     0.141390000000     0.465860000000    -0.496308   
O62      O      0.139140000000     0.176410000000     0.434570000000    -0.503304   
O63      O      0.227720000000     0.200650000000     0.528390000000    -0.502076   
O64      O      0.172040000000     0.140440000000     0.518990000000    -0.508016   
S1       S      0.195870000000     0.935010000000     0.369880000000    -0.0248682  
S2       S      0.922290000000     0.783100000000     0.578930000000    -0.0235505  
S3       S      0.854180000000     0.916170000000     0.598980000000    -0.0276516  
S4       S      0.934420000000     0.116450000000     0.447950000000    -0.0294697  
S5       S      0.730080000000     0.828610000000     0.602330000000    -0.0289891  
S6       S      0.769060000000     0.734780000000     0.044040000000    -0.0291987  
S7       S      0.731450000000     0.225950000000     0.916830000000    -0.0301266  
S8       S      0.789330000000     0.299130000000     0.073810000000    -0.030589   
S9       S      0.744710000000     0.585050000000     0.916110000000    -0.0222055  
S10      S      0.276880000000     0.832800000000     0.589260000000    -0.0267931  
S11      S      0.230100000000     0.693480000000     0.093630000000    -0.0281833  
S12      S      0.414430000000     0.625550000000     0.949980000000    -0.00627246 
S13      S      0.246640000000     0.341130000000     0.847770000000    -0.0243819  
S14      S      0.210150000000     0.173620000000     0.279180000000    -0.0279023  
S15      S      0.595150000000     0.291590000000     0.872860000000    -0.0302868  
S16      S      0.392510000000     0.598960000000     0.009070000000    -0.0261277  


