data_structure

_audit_creation_method RASPA-1.0
_audit_creation_date 2023-6-5
_audit_author_name 'Poobodin Mano'

_cell_length_a    43.4951
_cell_length_b    42.9107
_cell_length_c    24.4899
_cell_angle_alpha 89.6902
_cell_angle_beta  90.3098
_cell_angle_gamma 89.9995
_cell_volume      45706.7

_symmetry_cell_setting          triclinic
_symmetry_space_group_name_Hall 'P 1'
_symmetry_space_group_name_H-M  'P 1'
_symmetry_Int_Tables_number     1

_symmetry_equiv_pos_as_xyz 'x,y,z'

loop_
_atom_site_label
_atom_site_type_symbol
_atom_site_fract_x
_atom_site_fract_y
_atom_site_fract_z
_atom_site_charge
Br1      Br     0.251920000000     0.924750000000     0.464680000000    -0.192288   
Br2      Br     0.913950000000     0.853910000000     0.356620000000    -0.216666   
Br3      Br     0.824050000000     0.094200000000     0.626950000000    -0.210041   
Br4      Br     0.934370000000     0.128770000000     0.432460000000    -0.214486   
Br5      Br     0.648380000000     0.745710000000     0.808920000000    -0.207984   
Br6      Br     0.678700000000     0.784590000000     0.086700000000    -0.209117   
Br7      Br     0.719400000000     0.226780000000     0.908860000000    -0.212377   
Br8      Br     0.774760000000     0.343720000000     0.125440000000    -0.21263    
Br9      Br     0.671450000000     0.421770000000     0.866200000000    -0.213461   
Br10     Br     0.203780000000     0.734590000000     0.554960000000    -0.215278   
Br11     Br     0.255250000000     0.858780000000     0.330780000000    -0.195439   
Br12     Br     0.417130000000     0.726370000000     0.864770000000    -0.208351   
Br13     Br     0.225250000000     0.297030000000     0.530550000000    -0.218087   
Br14     Br     0.245010000000     0.277850000000     0.021890000000    -0.218794   
Br15     Br     0.434410000000     0.396870000000     0.966020000000    -0.163878   
Br16     Br     0.396730000000     0.437140000000     0.968770000000    -0.164858   
C1       C      0.331280000000     0.401630000000     0.969050000000     0.416087   
C2       C      0.318870000000     0.317470000000     0.863660000000     0.414827   
C3       C      0.400060000000     0.330720000000     0.960120000000     0.41833    
C4       C      0.309660000000     0.312820000000     0.049360000000     0.435279   
C5       C      0.319350000000     0.630290000000     0.962850000000     0.412004   
C6       C      0.300400000000     0.719630000000     0.063720000000     0.411896   
C7       C      0.386310000000     0.701120000000     0.977370000000     0.429945   
C8       C      0.293440000000     0.718290000000     0.888620000000     0.414326   
C9       C      0.624660000000     0.321670000000     0.992200000000     0.420234   
C10      C      0.717900000000     0.302630000000     0.909440000000     0.427418   
C11      C      0.689380000000     0.392190000000     0.985010000000     0.424353   
C12      C      0.714500000000     0.305730000000     0.083300000000     0.429749   
C13      C      0.681320000000     0.621340000000     0.982230000000     0.417826   
C14      C      0.698120000000     0.712750000000     0.890760000000     0.429558   
C15      C      0.611930000000     0.689070000000     0.981490000000     0.416236   
C16      C      0.701510000000     0.713420000000     0.064690000000     0.427303   
C17      C      0.823590000000     0.123560000000     0.504080000000     0.428532   
C18      C      0.818340000000     0.213910000000     0.586880000000     0.410682   
C19      C      0.901380000000     0.189340000000     0.486390000000     0.435852   
C20      C      0.812140000000     0.210590000000     0.407890000000     0.41561    
C21      C      0.884760000000     0.826920000000     0.469620000000     0.428731   
C22      C      0.794360000000     0.807210000000     0.566290000000     0.411176   
C23      C      0.815990000000     0.895470000000     0.495400000000     0.416475   
C24      C      0.797470000000     0.807580000000     0.389490000000     0.414046   
C25      C      0.110900000000     0.830490000000     0.470140000000     0.418906   
C26      C      0.201710000000     0.814740000000     0.382820000000     0.422679   
C27      C      0.181000000000     0.900810000000     0.465650000000     0.42636    
C28      C      0.195870000000     0.809960000000     0.562120000000     0.4321     
C29      C      0.126580000000     0.200760000000     0.461720000000     0.417149   
C30      C      0.217460000000     0.222080000000     0.545850000000     0.431994   
C31      C      0.192210000000     0.129460000000     0.468060000000     0.416315   
C32      C      0.214220000000     0.216890000000     0.372440000000     0.415486   
C33      C      0.213280000000     0.946850000000     0.466000000000     0.192779   
C34      C      0.158790000000     0.950880000000     0.461930000000     0.0839421  
C35      C      0.215630000000     0.979440000000     0.466590000000    -0.121665   
C36      C      0.211220000000     0.048800000000     0.433710000000    -0.0812218  
C37      C      0.160560000000     0.983280000000     0.463180000000    -0.0954697  
C38      C      0.191200000000     0.032370000000     0.467990000000     0.0323533  
C39      C      0.189170000000     0.997910000000     0.465870000000     0.0576918  
C40      C      0.211550000000     0.081390000000     0.434610000000     0.0759564  
C41      C      0.173750000000     0.081620000000     0.504060000000     0.0763876  
C42      C      0.172530000000     0.049140000000     0.503720000000    -0.0822874  
C43      C      0.932460000000     0.835850000000     0.421290000000     0.190819   
C44      C      0.932170000000     0.812220000000     0.509270000000     0.0826152  
C45      C      0.964670000000     0.835090000000     0.421300000000    -0.122197   
C46      C      0.032390000000     0.819010000000     0.419760000000    -0.0812537  
C47      C      0.964190000000     0.810900000000     0.509890000000    -0.0950176  
C48      C      0.015210000000     0.823460000000     0.467390000000     0.0324102  
C49      C      0.980950000000     0.822860000000     0.465980000000     0.0570458  
C50      C      0.064420000000     0.821220000000     0.421480000000     0.0775958  
C51      C      0.063140000000     0.831080000000     0.516590000000     0.0769728  
C52      C      0.031090000000     0.829370000000     0.516260000000    -0.0815535  
C53      C      0.819230000000     0.075550000000     0.555810000000     0.193209   
C54      C      0.811760000000     0.076350000000     0.459590000000     0.0860946  
C55      C      0.816540000000     0.043030000000     0.556010000000    -0.122154   
C56      C      0.833270000000     0.975280000000     0.537040000000    -0.0807734  
C57      C      0.808810000000     0.043980000000     0.458860000000    -0.093794   
C58      C      0.811580000000     0.992260000000     0.506630000000     0.0335163  
C59      C      0.811900000000     0.026870000000     0.507250000000     0.0586834  
C60      C      0.834030000000     0.942830000000     0.533580000000     0.0783979  
C61      C      0.791750000000     0.943400000000     0.472040000000     0.0780265  
C62      C      0.790460000000     0.975910000000     0.474260000000    -0.0809945  
C63      C      0.950360000000     0.168000000000     0.458640000000     0.19243    
C64      C      0.947150000000     0.218190000000     0.498860000000     0.0834939  
C65      C      0.982240000000     0.171380000000     0.454010000000    -0.122902   
C66      C      0.046230000000     0.190870000000     0.421230000000    -0.0817955  
C67      C      0.978940000000     0.222020000000     0.494700000000    -0.0950052  
C68      C      0.030830000000     0.201660000000     0.467540000000     0.0321967  
C69      C      0.996890000000     0.198490000000     0.471920000000     0.0577551  
C70      C      0.078270000000     0.191580000000     0.419390000000     0.0774565  
C71      C      0.080380000000     0.214610000000     0.507130000000     0.0766511  
C72      C      0.048300000000     0.214220000000     0.510370000000    -0.0809551  
C73      C      0.692590000000     0.741870000000     0.806170000000     0.192037   
C74      C      0.741710000000     0.725450000000     0.838140000000     0.083751   
C75      C      0.706290000000     0.755310000000     0.760030000000    -0.121738   
C76      C      0.742220000000     0.796170000000     0.681600000000    -0.0807907  
C77      C      0.755830000000     0.738770000000     0.792660000000    -0.0947936  
C78      C      0.752760000000     0.767820000000     0.703500000000     0.0321194  
C79      C      0.738130000000     0.753850000000     0.752720000000     0.0575866  
C80      C      0.756240000000     0.808900000000     0.635390000000     0.0755033  
C81      C      0.790950000000     0.766360000000     0.631810000000     0.0758083  
C82      C      0.777390000000     0.752900000000     0.677800000000    -0.0814411  
C83      C      0.707870000000     0.757980000000     0.124150000000     0.191276   
C84      C      0.736330000000     0.711370000000     0.138850000000     0.0827148  
C85      C      0.721830000000     0.771240000000     0.170190000000    -0.12217    
C86      C      0.766680000000     0.799640000000     0.250990000000    -0.0804627  
C87      C      0.750550000000     0.724130000000     0.184740000000    -0.095058   
C88      C      0.757890000000     0.768220000000     0.250450000000     0.0323313  
C89      C      0.743300000000     0.754370000000     0.201130000000     0.057444   
C90      C      0.779920000000     0.812400000000     0.297860000000     0.0778896  
C91      C      0.776320000000     0.763760000000     0.343780000000     0.0753815  
C92      C      0.762940000000     0.750250000000     0.297630000000    -0.0810175  
C93      C      0.735470000000     0.257650000000     0.858960000000     0.192692   
C94      C      0.746780000000     0.309140000000     0.828890000000     0.0845093  
C95      C      0.750690000000     0.245620000000     0.813410000000    -0.12205    
C96      C      0.798990000000     0.227210000000     0.729990000000    -0.0797012  
C97      C      0.761850000000     0.297680000000     0.783080000000    -0.0940027  
C98      C      0.779290000000     0.252940000000     0.725730000000     0.0324862  
C99      C      0.763860000000     0.265600000000     0.774780000000     0.0582274  
C100     C      0.812400000000     0.214870000000     0.683160000000     0.0775451  
C101     C      0.787590000000     0.252990000000     0.627980000000     0.0758554  
C102     C      0.773960000000     0.266060000000     0.674030000000    -0.0808779  
C103     C      0.755010000000     0.306230000000     0.151560000000     0.192167   
C104     C      0.715850000000     0.267620000000     0.153120000000     0.0846334  
C105     C      0.768680000000     0.292610000000     0.197810000000    -0.122076   
C106     C      0.802800000000     0.250250000000     0.276260000000    -0.0807044  
C107     C      0.729210000000     0.253520000000     0.198890000000    -0.0939629  
C108     C      0.770700000000     0.251160000000     0.270710000000     0.0327529  
C109     C      0.756010000000     0.265910000000     0.221870000000     0.0577697  
C110     C      0.816240000000     0.236680000000     0.322500000000     0.0771829  
C111     C      0.767090000000     0.224220000000     0.357830000000     0.0772957  
C112     C      0.752850000000     0.237890000000     0.312340000000    -0.0811473  
C113     C      0.682220000000     0.440630000000     0.935130000000     0.192347   
C114     C      0.698360000000     0.440450000000     0.028030000000     0.0841723  
C115     C      0.682030000000     0.473280000000     0.935100000000    -0.122295   
C116     C      0.699100000000     0.541990000000     0.938430000000    -0.0811947  
C117     C      0.698270000000     0.472950000000     0.028930000000    -0.094022   
C118     C      0.688590000000     0.524400000000     0.982950000000     0.0322759  
C119     C      0.689820000000     0.489780000000     0.982270000000     0.057432   
C120     C      0.696840000000     0.574460000000     0.939140000000     0.0762473  
C121     C      0.674300000000     0.572650000000     0.027050000000     0.0762369  
C122     C      0.676290000000     0.540170000000     0.027780000000    -0.0815923  
C123     C      0.213250000000     0.764170000000     0.611780000000     0.191905   
C124     C      0.215140000000     0.814460000000     0.651930000000     0.0844926  
C125     C      0.226280000000     0.751240000000     0.659200000000    -0.122108   
C126     C      0.239060000000     0.728510000000     0.775360000000    -0.081184   
C127     C      0.228220000000     0.802110000000     0.699410000000    -0.0947625  
C128     C      0.249060000000     0.756840000000     0.752910000000     0.0328146  
C129     C      0.234120000000     0.770200000000     0.703380000000     0.0580352  
C130     C      0.253940000000     0.716070000000     0.821250000000     0.0763679  
C131     C      0.288270000000     0.758990000000     0.823290000000     0.0786736  
C132     C      0.273860000000     0.772160000000     0.777670000000    -0.0805179  
C133     C      0.239900000000     0.818050000000     0.311310000000     0.190078   
C134     C      0.207680000000     0.773580000000     0.320290000000     0.0849379  
C135     C      0.254250000000     0.804440000000     0.266250000000    -0.120916   
C136     C      0.267200000000     0.778390000000     0.153540000000    -0.0812993  
C137     C      0.221670000000     0.759580000000     0.275610000000    -0.0939969  
C138     C      0.260190000000     0.760540000000     0.199900000000     0.0325984  
C139     C      0.245230000000     0.775000000000     0.247930000000     0.057458   
C140     C      0.280840000000     0.764350000000     0.108440000000     0.0756403  
C141     C      0.281100000000     0.715440000000     0.154010000000     0.0759008  
C142     C      0.267400000000     0.728710000000     0.199790000000    -0.0813994  
C143     C      0.434710000000     0.711470000000     0.932650000000     0.19305    
C144     C      0.433140000000     0.695540000000     0.025710000000     0.0834087  
C145     C      0.466870000000     0.710250000000     0.933960000000    -0.12259    
C146     C      0.531650000000     0.684660000000     0.937370000000    -0.0800746  
C147     C      0.465190000000     0.694260000000     0.028000000000    -0.0947955  
C148     C      0.516460000000     0.697970000000     0.981840000000     0.0333541  
C149     C      0.482420000000     0.701040000000     0.981460000000     0.0585054  
C150     C      0.563590000000     0.681780000000     0.938060000000     0.0804622  
C151     C      0.566030000000     0.704880000000     0.025740000000     0.0787487  
C152     C      0.534040000000     0.708040000000     0.026480000000    -0.0797426  
C153     C      0.237540000000     0.268770000000     0.588280000000     0.192064   
C154     C      0.243910000000     0.219040000000     0.630050000000     0.0832907  
C155     C      0.253130000000     0.282650000000     0.632060000000    -0.122573   
C156     C      0.269840000000     0.308180000000     0.743190000000    -0.0800507  
C157     C      0.259270000000     0.232390000000     0.674220000000    -0.0947472  
C158     C      0.279700000000     0.279290000000     0.723350000000     0.0329744  
C159     C      0.264020000000     0.264580000000     0.675810000000     0.05788    
C160     C      0.283830000000     0.321020000000     0.789290000000     0.0785138  
C161     C      0.317470000000     0.277710000000     0.796550000000     0.0776598  
C162     C      0.304170000000     0.264290000000     0.750250000000    -0.0806285  
C163     C      0.268020000000     0.282990000000     0.088930000000     0.191318   
C164     C      0.309130000000     0.301890000000     0.143930000000     0.0826155  
C165     C      0.254620000000     0.269300000000     0.135060000000    -0.122986   
C166     C      0.222850000000     0.260030000000     0.244270000000    -0.0809904  
C167     C      0.296300000000     0.288250000000     0.190350000000    -0.094995   
C168     C      0.254500000000     0.257340000000     0.235200000000     0.0329099  
C169     C      0.268720000000     0.271770000000     0.186260000000     0.0575462  
C170     C      0.209760000000     0.246310000000     0.290430000000     0.0783724  
C171     C      0.258460000000     0.227020000000     0.318640000000     0.078193   
C172     C      0.272350000000     0.240660000000     0.273090000000    -0.0811107  
C173     C      0.450020000000     0.354750000000     0.963770000000     0.186281   
C174     C      0.444700000000     0.299620000000     0.969600000000     0.0833919  
C175     C      0.481910000000     0.351850000000     0.968480000000    -0.120839   
C176     C      0.543960000000     0.337460000000     0.021520000000    -0.0821207  
C177     C      0.476600000000     0.296140000000     0.973770000000    -0.0945068  
C178     C      0.529140000000     0.319900000000     0.981250000000     0.0330093  
C179     C      0.495450000000     0.322490000000     0.973760000000     0.0568285  
C180     C      0.575930000000     0.336870000000     0.025760000000     0.0785311  
C181     C      0.578940000000     0.301670000000     0.951600000000     0.0776463  
C182     C      0.546860000000     0.301290000000     0.946810000000    -0.0807696  
C183     C      0.354960000000     0.452500000000     0.970170000000     0.185552   
C184     C      0.300600000000     0.447110000000     0.964570000000     0.082089   
C185     C      0.351970000000     0.484910000000     0.968690000000    -0.120346   
C186     C      0.340730000000     0.550460000000     0.928940000000    -0.0817078  
C187     C      0.297060000000     0.479480000000     0.962840000000    -0.0934079  
C188     C      0.320150000000     0.533210000000     0.960910000000     0.032731   
C189     C      0.322960000000     0.498760000000     0.964480000000     0.0561617  
C190     C      0.339530000000     0.582920000000     0.928970000000     0.0766056  
C191     C      0.297280000000     0.581870000000     0.989760000000     0.0756486  
C192     C      0.297810000000     0.549270000000     0.990680000000    -0.0815972  
H1       H      0.226910000000     0.093400000000     0.406830000000     0.0354616  
H2       H      0.135970000000     0.940720000000     0.460190000000     0.0337299  
H3       H      0.157040000000     0.037220000000     0.531330000000     0.0575336  
H4       H      0.139540000000     0.996820000000     0.461720000000     0.0611317  
H5       H      0.225940000000     0.036610000000     0.405390000000     0.0612148  
H6       H      0.238100000000     0.990330000000     0.468270000000     0.0849921  
H7       H      0.158750000000     0.093770000000     0.532070000000     0.0344855  
H8       H      0.076850000000     0.817900000000     0.383680000000     0.0359873  
H9       H      0.920380000000     0.802900000000     0.544700000000     0.0340129  
H10      H      0.018880000000     0.833440000000     0.553970000000     0.0563772  
H11      H      0.975690000000     0.800540000000     0.544870000000     0.0595648  
H12      H      0.021250000000     0.813790000000     0.381240000000     0.0591222  
H13      H      0.976910000000     0.844880000000     0.386840000000     0.0834973  
H14      H      0.074500000000     0.836020000000     0.555110000000     0.0342579  
H15      H      0.851550000000     0.930580000000     0.556960000000     0.0356698  
H16      H      0.810030000000     0.088440000000     0.420680000000     0.0365362  
H17      H      0.773080000000     0.988150000000     0.450660000000     0.0582325  
H18      H      0.805230000000     0.032390000000     0.420160000000     0.0629443  
H19      H      0.850210000000     0.987000000000     0.562180000000     0.0617033  
H20      H      0.818050000000     0.030370000000     0.594340000000     0.084574   
H21      H      0.775240000000     0.931570000000     0.446090000000     0.0369748  
H22      H      0.089300000000     0.182470000000     0.383220000000     0.0356407  
H23      H      0.934260000000     0.237210000000     0.516640000000     0.0330896  
H24      H      0.037360000000     0.222700000000     0.547030000000     0.0574667  
H25      H      0.989310000000     0.243500000000     0.508770000000     0.060634   
H26      H      0.033630000000     0.181600000000     0.386680000000     0.0597903  
H27      H      0.995640000000     0.152460000000     0.437200000000     0.0838629  
H28      H      0.093170000000     0.223780000000     0.541620000000     0.0361512  
H29      H      0.747530000000     0.830930000000     0.619880000000     0.0352261  
H30      H      0.756570000000     0.714050000000     0.867830000000     0.0337059  
H31      H      0.785990000000     0.730720000000     0.692660000000     0.0563961  
H32      H      0.780610000000     0.737480000000     0.789250000000     0.0599544  
H33      H      0.723540000000     0.808760000000     0.700460000000     0.0603605  
H34      H      0.691880000000     0.766410000000     0.729390000000     0.0842247  
H35      H      0.809960000000     0.754080000000     0.613180000000     0.0355222  
H36      H      0.786410000000     0.836800000000     0.296610000000     0.0396602  
H37      H      0.742820000000     0.687790000000     0.128060000000     0.0334621  
H38      H      0.756160000000     0.725980000000     0.299330000000     0.056425   
H39      H      0.767390000000     0.710360000000     0.206930000000     0.0599925  
H40      H      0.763650000000     0.814300000000     0.215220000000     0.0608957  
H41      H      0.715430000000     0.794600000000     0.182280000000     0.0842126  
H42      H      0.779710000000     0.749140000000     0.379560000000     0.0338202  
H43      H      0.827310000000     0.194790000000     0.688090000000     0.0438919  
H44      H      0.745790000000     0.334270000000     0.833220000000     0.0404389  
H45      H      0.758720000000     0.285840000000     0.668930000000     0.0581885  
H46      H      0.772080000000     0.313950000000     0.754490000000     0.0622272  
H47      H      0.804060000000     0.216660000000     0.769300000000     0.0623139  
H48      H      0.751820000000     0.220610000000     0.807820000000     0.0859066  
H49      H      0.782510000000     0.263450000000     0.588550000000     0.034688   
H50      H      0.841130000000     0.236490000000     0.325160000000     0.0364105  
H51      H      0.695210000000     0.256880000000     0.136770000000     0.0362402  
H52      H      0.727980000000     0.238400000000     0.310350000000     0.0568702  
H53      H      0.718730000000     0.232670000000     0.215530000000     0.0613255  
H54      H      0.817600000000     0.259650000000     0.244800000000     0.0602441  
H55      H      0.788950000000     0.303320000000     0.215440000000     0.0834573  
H56      H      0.752490000000     0.214310000000     0.389190000000     0.0354603  
H57      H      0.705100000000     0.587250000000     0.903830000000     0.0353728  
H58      H      0.704930000000     0.428570000000     0.065510000000     0.0398651  
H59      H      0.667600000000     0.527490000000     0.062800000000     0.0570912  
H60      H      0.704940000000     0.484780000000     0.066110000000     0.0616149  
H61      H      0.709160000000     0.530770000000     0.903270000000     0.0597518  
H62      H      0.675240000000     0.485740000000     0.898360000000     0.0839507  
H63      H      0.664310000000     0.583970000000     0.062260000000     0.0341383  
H64      H      0.245630000000     0.694070000000     0.837440000000     0.0340496  
H65      H      0.211160000000     0.839410000000     0.651000000000     0.0362934  
H66      H      0.282550000000     0.793910000000     0.761270000000     0.0605405  
H67      H      0.233550000000     0.817580000000     0.732970000000     0.0614896  
H68      H      0.219730000000     0.716110000000     0.757810000000     0.0590617  
H69      H      0.230830000000     0.726430000000     0.661060000000     0.0845424  
H70      H      0.307590000000     0.771440000000     0.840920000000     0.0415757  
H71      H      0.285690000000     0.778900000000     0.073180000000     0.0354979  
H72      H      0.189440000000     0.760610000000     0.340130000000     0.0388647  
H73      H      0.262760000000     0.714140000000     0.235040000000     0.0585359  
H74      H      0.213690000000     0.736920000000     0.262390000000     0.0613525  
H75      H      0.261710000000     0.802990000000     0.151640000000     0.0597975  
H76      H      0.272720000000     0.816760000000     0.245930000000     0.0845835  
H77      H      0.286300000000     0.690730000000     0.155440000000     0.0357566  
H78      H      0.574460000000     0.671320000000     0.902880000000     0.040425   
H79      H      0.420810000000     0.689290000000     0.062560000000     0.0330776  
H80      H      0.523240000000     0.718700000000     0.061480000000     0.0592173  
H81      H      0.476300000000     0.687040000000     0.065680000000     0.0607596  
H82      H      0.518920000000     0.676110000000     0.902380000000     0.0620389  
H83      H      0.479710000000     0.716710000000     0.897830000000     0.0868596  
H84      H      0.578900000000     0.713100000000     0.060870000000     0.0398294  
H85      H      0.275160000000     0.343160000000     0.803830000000     0.0385749  
H86      H      0.240660000000     0.193990000000     0.631190000000     0.0336875  
H87      H      0.313020000000     0.242260000000     0.735780000000     0.0570312  
H88      H      0.266820000000     0.217460000000     0.707460000000     0.0612     
H89      H      0.250810000000     0.320510000000     0.724270000000     0.060578   
H90      H      0.257080000000     0.307580000000     0.631390000000     0.0836555  
H91      H      0.336030000000     0.265180000000     0.816680000000     0.035129   
H92      H      0.185210000000     0.249060000000     0.296170000000     0.0372632  
H93      H      0.330550000000     0.314470000000     0.149330000000     0.0341562  
H94      H      0.296860000000     0.237790000000     0.267250000000     0.0578134  
H95      H      0.307780000000     0.290980000000     0.229400000000     0.06165    
H96      H      0.208290000000     0.273010000000     0.216240000000     0.0604851  
H97      H      0.233300000000     0.256460000000     0.130770000000     0.08409    
H98      H      0.272990000000     0.214200000000     0.347010000000     0.0359058  
H99      H      0.586570000000     0.351150000000     0.057000000000     0.0353338  
H100     H      0.430770000000     0.278650000000     0.970100000000     0.0325311  
H101     H      0.536090000000     0.287430000000     0.915200000000     0.0594103  
H102     H      0.486390000000     0.273040000000     0.978180000000     0.0615583  
H103     H      0.530890000000     0.351850000000     0.049240000000     0.0611742  
H104     H      0.496110000000     0.372610000000     0.969130000000     0.0847997  
H105     H      0.592090000000     0.287660000000     0.923350000000     0.0382512  
H106     H      0.356230000000     0.595380000000     0.904420000000     0.037462   
H107     H      0.279890000000     0.433050000000     0.962950000000     0.0344748  
H108     H      0.281510000000     0.536810000000     0.015950000000     0.0570599  
H109     H      0.274190000000     0.489290000000     0.959190000000     0.0604423  
H110     H      0.357900000000     0.538970000000     0.904310000000     0.0610957  
H111     H      0.372450000000     0.499260000000     0.970270000000     0.0830622  
H112     H      0.280180000000     0.593570000000     0.014350000000     0.0353078  
In1      In     0.338430000000     0.338930000000     0.961710000000     2.40047    
In2      In     0.324460000000     0.692720000000     0.973770000000     2.41668    
In3      In     0.686520000000     0.329300000000     0.992700000000     2.42648    
In4      In     0.673880000000     0.684000000000     0.979810000000     2.42439    
In5      In     0.839340000000     0.184750000000     0.496550000000     2.41504    
In6      In     0.822910000000     0.833600000000     0.479740000000     2.41408    
In7      In     0.172560000000     0.838300000000     0.471250000000     2.4208     
In8      In     0.188160000000     0.192410000000     0.462920000000     2.42327    
N1       N      0.184730000000     0.932600000000     0.464320000000    -0.205417   
N2       N      0.192740000000     0.097580000000     0.469170000000    -0.193616   
N3       N      0.916220000000     0.824930000000     0.465920000000    -0.207675   
N4       N      0.079590000000     0.827440000000     0.469440000000    -0.192913   
N5       N      0.817870000000     0.092100000000     0.507180000000    -0.20628    
N6       N      0.813710000000     0.927110000000     0.500760000000    -0.192262   
N7       N      0.932760000000     0.191520000000     0.481080000000    -0.208392   
N8       N      0.095190000000     0.202720000000     0.462510000000    -0.192543   
N9       N      0.710390000000     0.726780000000     0.845210000000    -0.206831   
N10      N      0.780480000000     0.794150000000     0.610920000000    -0.19235    
N11      N      0.715030000000     0.727860000000     0.108680000000    -0.206866   
N12      N      0.784630000000     0.794600000000     0.343840000000    -0.192691   
N13      N      0.733290000000     0.289530000000     0.866390000000    -0.206202   
N14      N      0.806370000000     0.227410000000     0.632570000000    -0.191529   
N15      N      0.728600000000     0.293560000000     0.129030000000    -0.206812   
N16      N      0.798510000000     0.223770000000     0.362870000000    -0.192025   
N17      N      0.690020000000     0.424190000000     0.982010000000    -0.204896   
N18      N      0.684280000000     0.589590000000     0.982910000000    -0.193755   
N19      N      0.207920000000     0.795920000000     0.608050000000    -0.207919   
N20      N      0.278470000000     0.731110000000     0.844660000000    -0.192189   
N21      N      0.216540000000     0.802530000000     0.338360000000    -0.204824   
N22      N      0.287590000000     0.733120000000     0.108680000000    -0.192988   
N23      N      0.417830000000     0.703180000000     0.978210000000    -0.207638   
N24      N      0.580600000000     0.691880000000     0.981840000000    -0.191046   
N25      N      0.232790000000     0.236880000000     0.587520000000    -0.208208   
N26      N      0.307050000000     0.305610000000     0.816260000000    -0.192224   
N27      N      0.295400000000     0.299260000000     0.093430000000    -0.20971    
N28      N      0.227450000000     0.229950000000     0.327220000000    -0.191816   
N29      N      0.431470000000     0.328540000000     0.963950000000    -0.203675   
N30      N      0.593270000000     0.319740000000     0.990200000000    -0.193218   
N31      N      0.329170000000     0.433580000000     0.968430000000    -0.203362   
N32      N      0.318430000000     0.598470000000     0.960060000000    -0.192301   
O1       O      0.300450000000     0.309880000000     0.001000000000    -0.493619   
O2       O      0.333690000000     0.329080000000     0.053650000000    -0.505345   
O3       O      0.309840000000     0.342890000000     0.883620000000    -0.489326   
O4       O      0.309090000000     0.383860000000     0.957000000000    -0.47599    
O5       O      0.382070000000     0.309610000000     0.977150000000    -0.483698   
O6       O      0.355750000000     0.387370000000     0.980190000000    -0.460467   
O7       O      0.338550000000     0.303220000000     0.892470000000    -0.495541   
O8       O      0.386620000000     0.354340000000     0.940700000000    -0.462056   
O9       O      0.285540000000     0.692740000000     0.910250000000    -0.501647   
O10      O      0.316650000000     0.730880000000     0.910370000000    -0.484889   
O11      O      0.306840000000     0.690980000000     0.061520000000    -0.491419   
O12      O      0.301130000000     0.645960000000     0.991890000000    -0.486255   
O13      O      0.370460000000     0.703770000000     0.934460000000    -0.474247   
O14      O      0.339490000000     0.646270000000     0.938480000000    -0.500988   
O15      O      0.306390000000     0.734730000000     0.020710000000    -0.50228    
O16      O      0.370690000000     0.694440000000     0.019210000000    -0.504977   
O17      O      0.688850000000     0.296050000000     0.065910000000    -0.501514   
O18      O      0.725990000000     0.327080000000     0.054390000000    -0.476617   
O19      O      0.702380000000     0.287200000000     0.943390000000    -0.478533   
O20      O      0.641870000000     0.308880000000     0.957540000000    -0.491214   
O21      O      0.697200000000     0.377300000000     0.027610000000    -0.485148   
O22      O      0.638740000000     0.337630000000     0.027490000000    -0.50509    
O23      O      0.717470000000     0.331630000000     0.917710000000    -0.491093   
O24      O      0.680260000000     0.375050000000     0.946490000000    -0.473872   
O25      O      0.707460000000     0.685590000000     0.051780000000    -0.503589   
O26      O      0.681830000000     0.726290000000     0.034090000000    -0.475958   
O27      O      0.714230000000     0.697720000000     0.924980000000    -0.500874   
O28      O      0.689860000000     0.638040000000     0.942520000000    -0.500034   
O29      O      0.628820000000     0.698290000000     0.020300000000    -0.485893   
O30      O      0.669300000000     0.636310000000     0.020890000000    -0.502343   
O31      O      0.669950000000     0.713380000000     0.902200000000    -0.476052   
O32      O      0.626350000000     0.677210000000     0.942080000000    -0.490612   
O33      O      0.797010000000     0.197230000000     0.445300000000    -0.48849    
O34      O      0.840920000000     0.210880000000     0.415450000000    -0.501019   
O35      O      0.835530000000     0.190250000000     0.588930000000    -0.480533   
O36      O      0.832450000000     0.139520000000     0.544100000000    -0.471998   
O37      O      0.885220000000     0.210580000000     0.507370000000    -0.502681   
O38      O      0.822280000000     0.138760000000     0.459820000000    -0.492131   
O39      O      0.812250000000     0.223360000000     0.539130000000    -0.495877   
O40      O      0.886000000000     0.166210000000     0.470730000000    -0.487551   
O41      O      0.802720000000     0.792280000000     0.432690000000    -0.502684   
O42      O      0.805030000000     0.835910000000     0.391930000000    -0.485894   
O43      O      0.785450000000     0.832550000000     0.544950000000    -0.501331   
O44      O      0.870320000000     0.819520000000     0.512350000000    -0.495105   
O45      O      0.798100000000     0.879840000000     0.465330000000    -0.486682   
O46      O      0.867730000000     0.837110000000     0.431860000000    -0.484659   
O47      O      0.817400000000     0.795090000000     0.543490000000    -0.48887    
O48      O      0.836890000000     0.879680000000     0.518580000000    -0.501886   
O49      O      0.189530000000     0.795610000000     0.518870000000    -0.484549   
O50      O      0.190460000000     0.838820000000     0.559300000000    -0.499276   
O51      O      0.180220000000     0.800610000000     0.407080000000    -0.484596   
O52      O      0.126970000000     0.829460000000     0.427340000000    -0.49272    
O53      O      0.202490000000     0.881940000000     0.476110000000    -0.459183   
O54      O      0.126020000000     0.835370000000     0.513470000000    -0.502729   
O55      O      0.208230000000     0.840740000000     0.403400000000    -0.471406   
O56      O      0.155190000000     0.887920000000     0.458180000000    -0.503499   
O57      O      0.186010000000     0.219930000000     0.383150000000    -0.493014   
O58      O      0.229260000000     0.201130000000     0.407190000000    -0.493823   
O59      O      0.215760000000     0.192760000000     0.542610000000    -0.507376   
O60      O      0.143390000000     0.209840000000     0.500820000000    -0.493809   
O61      O      0.207410000000     0.145490000000     0.434260000000    -0.494453   
O62      O      0.141020000000     0.188260000000     0.422930000000    -0.496961   
O63      O      0.203720000000     0.236220000000     0.507730000000    -0.483903   
O64      O      0.175600000000     0.145250000000     0.499650000000    -0.503672   


