data_structure

_audit_creation_method RASPA-1.0
_audit_creation_date 2023-6-5
_audit_author_name 'Poobodin Mano'

_cell_length_a    43.4862
_cell_length_b    44.3336
_cell_length_c    23.7795
_cell_angle_alpha 89.6962
_cell_angle_beta  90.3039
_cell_angle_gamma 89.9996
_cell_volume      45843.2

_symmetry_cell_setting          triclinic
_symmetry_space_group_name_Hall 'P 1'
_symmetry_space_group_name_H-M  'P 1'
_symmetry_Int_Tables_number     1

_symmetry_equiv_pos_as_xyz 'x,y,z'

loop_
_atom_site_label
_atom_site_type_symbol
_atom_site_fract_x
_atom_site_fract_y
_atom_site_fract_z
_atom_site_charge
C1       C      0.327060000000     0.389300000000     0.980680000000     0.428643   
C2       C      0.308210000000     0.302760000000     0.884570000000     0.416697   
C3       C      0.396500000000     0.323510000000     0.975960000000     0.428589   
C4       C      0.307830000000     0.299560000000     0.063600000000     0.427097   
C5       C      0.322030000000     0.610980000000     0.980300000000     0.410796   
C6       C      0.301210000000     0.701450000000     0.068220000000     0.41127    
C7       C      0.390640000000     0.673290000000     0.990440000000     0.424208   
C8       C      0.301460000000     0.700040000000     0.894220000000     0.422796   
C9       C      0.622400000000     0.317010000000     0.995190000000     0.410438   
C10      C      0.710820000000     0.288250000000     0.915540000000     0.42424    
C11      C      0.691920000000     0.380280000000     0.000160000000     0.415626   
C12      C      0.711080000000     0.291720000000     0.089070000000     0.411638   
C13      C      0.686480000000     0.601740000000     0.009350000000     0.424411   
C14      C      0.705670000000     0.689490000000     0.917270000000     0.414251   
C15      C      0.616800000000     0.666770000000     0.003080000000     0.418488   
C16      C      0.706190000000     0.690600000000     0.094030000000     0.415601   
C17      C      0.826260000000     0.101530000000     0.509890000000     0.424389   
C18      C      0.806970000000     0.185200000000     0.596560000000     0.410687   
C19      C      0.895600000000     0.167500000000     0.492980000000     0.421077   
C20      C      0.807290000000     0.192460000000     0.416870000000     0.428664   
C21      C      0.889680000000     0.815040000000     0.488880000000     0.415194   
C22      C      0.801600000000     0.792530000000     0.595470000000     0.424402   
C23      C      0.819470000000     0.880210000000     0.517910000000     0.413099   
C24      C      0.803350000000     0.793740000000     0.414500000000     0.419861   
C25      C      0.115320000000     0.820170000000     0.474370000000     0.425066   
C26      C      0.205140000000     0.802360000000     0.390520000000     0.426508   
C27      C      0.183760000000     0.889050000000     0.480410000000     0.42963    
C28      C      0.202360000000     0.800540000000     0.570500000000     0.419303   
C29      C      0.121330000000     0.175520000000     0.477780000000     0.411456   
C30      C      0.212210000000     0.200470000000     0.561860000000     0.422352   
C31      C      0.188360000000     0.110920000000     0.477840000000     0.41224    
C32      C      0.210830000000     0.199630000000     0.388130000000     0.411508   
C33      C      0.206030000000     0.934790000000     0.444130000000     0.245045   
C34      C      0.169110000000     0.936350000000     0.517300000000     0.086094   
C35      C      0.207650000000     0.966360000000     0.443830000000    -0.15789    
C36      C      0.192380000000     0.032830000000     0.429260000000    -0.07975    
C37      C      0.170320000000     0.967790000000     0.517970000000    -0.105149   
C38      C      0.190560000000     0.016810000000     0.480130000000     0.0246116  
C39      C      0.189630000000     0.983250000000     0.480800000000     0.0682357  
C40      C      0.192060000000     0.064350000000     0.429310000000     0.0727473  
C41      C      0.188580000000     0.064690000000     0.528770000000     0.0729452  
C42      C      0.188930000000     0.033200000000     0.530290000000    -0.0801062  
C43      C      0.067110000000     0.825020000000     0.425340000000     0.244726   
C44      C      0.068890000000     0.805890000000     0.518790000000     0.0842313  
C45      C      0.034980000000     0.823110000000     0.425380000000    -0.15875    
C46      C      0.968140000000     0.835820000000     0.450180000000    -0.0805604  
C47      C      0.036880000000     0.803780000000     0.519970000000    -0.105167   
C48      C      0.985230000000     0.812390000000     0.474870000000     0.0243524  
C49      C      0.019440000000     0.812780000000     0.473170000000     0.0674709  
C50      C      0.936140000000     0.835980000000     0.454270000000     0.0725782  
C51      C      0.937260000000     0.790110000000     0.505960000000     0.0725782  
C52      C      0.969320000000     0.789170000000     0.502480000000    -0.0809762  
C53      C      0.822890000000     0.053600000000     0.463920000000     0.245422   
C54      C      0.820100000000     0.056670000000     0.563460000000     0.0834317  
C55      C      0.820550000000     0.022200000000     0.467010000000    -0.158971   
C56      C      0.800260000000     0.957890000000     0.480060000000    -0.0799071  
C57      C      0.817280000000     0.025330000000     0.567680000000    -0.104953   
C58      C      0.815660000000     0.974110000000     0.522120000000     0.0245584  
C59      C      0.817600000000     0.007630000000     0.519090000000     0.0680041  
C60      C      0.801170000000     0.926460000000     0.480140000000     0.0735956  
C61      C      0.830440000000     0.926330000000     0.564530000000     0.0724858  
C62      C      0.830340000000     0.957880000000     0.565370000000    -0.0796996  
C63      C      0.943540000000     0.150110000000     0.455320000000     0.244275   
C64      C      0.942310000000     0.191440000000     0.518470000000     0.0850433  
C65      C      0.975580000000     0.152360000000     0.452100000000    -0.157803   
C66      C      0.041230000000     0.172080000000     0.430610000000    -0.0803312  
C67      C      0.974290000000     0.194010000000     0.516360000000    -0.104648   
C68      C      0.025460000000     0.176040000000     0.481270000000     0.0245223  
C69      C      0.991350000000     0.174280000000     0.483030000000     0.0678215  
C70      C      0.073330000000     0.172400000000     0.430100000000     0.0725092  
C71      C      0.074720000000     0.180990000000     0.528430000000     0.0721524  
C72      C      0.042620000000     0.180850000000     0.530460000000    -0.0806361  
C73      C      0.758460000000     0.766820000000     0.636160000000     0.243447   
C74      C      0.804140000000     0.774550000000     0.689390000000     0.0837544  
C75      C      0.744900000000     0.752260000000     0.682080000000    -0.158405   
C76      C      0.715780000000     0.738170000000     0.794230000000    -0.0807348  
C77      C      0.791190000000     0.760000000000     0.735810000000    -0.10509    
C78      C      0.746810000000     0.733310000000     0.781500000000     0.0245497  
C79      C      0.761190000000     0.748700000000     0.732580000000     0.067361   
C80      C      0.702400000000     0.723240000000     0.839720000000     0.073043   
C81      C      0.749650000000     0.698880000000     0.860880000000     0.0724092  
C82      C      0.763780000000     0.713420000000     0.815580000000    -0.0811325  
C83      C      0.762290000000     0.789920000000     0.347000000000     0.245328   
C84      C      0.804460000000     0.755900000000     0.344550000000     0.0834593  
C85      C      0.748640000000     0.775160000000     0.301430000000    -0.158664   
C86      C      0.732630000000     0.750950000000     0.186610000000    -0.0803031  
C87      C      0.791490000000     0.740970000000     0.298630000000    -0.105176   
C88      C      0.748680000000     0.734690000000     0.228100000000     0.0244605  
C89      C      0.763170000000     0.750460000000     0.276570000000     0.0678589  
C90      C      0.718500000000     0.735810000000     0.142140000000     0.0729223  
C91      C      0.736120000000     0.688830000000     0.177870000000     0.0723576  
C92      C      0.750360000000     0.703230000000     0.223170000000    -0.0803412  
C93      C      0.712050000000     0.245530000000     0.853720000000     0.244377   
C94      C      0.749660000000     0.284230000000     0.846590000000     0.0847284  
C95      C      0.725770000000     0.230100000000     0.809150000000    -0.158933   
C96      C      0.748160000000     0.214410000000     0.691310000000    -0.0805824  
C97      C      0.763860000000     0.269240000000     0.802300000000    -0.105902   
C98      C      0.766260000000     0.226100000000     0.734940000000     0.0240087  
C99      C      0.751860000000     0.241930000000     0.782910000000     0.0679835  
C100     C      0.762160000000     0.200550000000     0.645470000000     0.0717243  
C101     C      0.811460000000     0.208770000000     0.685680000000     0.0721826  
C102     C      0.798250000000     0.223020000000     0.731870000000    -0.0805065  
C103     C      0.803520000000     0.235570000000     0.355410000000     0.244084   
C104     C      0.770660000000     0.193310000000     0.343010000000     0.0859484  
C105     C      0.789930000000     0.249860000000     0.308840000000    -0.157758   
C106     C      0.769400000000     0.267620000000     0.191250000000    -0.0800874  
C107     C      0.756780000000     0.206990000000     0.296450000000    -0.105192   
C108     C      0.751810000000     0.250430000000     0.228880000000     0.0247325  
C109     C      0.766340000000     0.235610000000     0.278680000000     0.0678782  
C110     C      0.755390000000     0.281280000000     0.144690000000     0.0730937  
C111     C      0.707000000000     0.261190000000     0.171050000000     0.0730183  
C112     C      0.720210000000     0.247390000000     0.218240000000    -0.0804356  
C113     C      0.678540000000     0.553660000000     0.054040000000     0.244695   
C114     C      0.703360000000     0.556890000000     0.965470000000     0.0840748  
C115     C      0.680590000000     0.522180000000     0.052670000000    -0.15901    
C116     C      0.701440000000     0.457060000000     0.052830000000    -0.0804712  
C117     C      0.705860000000     0.525520000000     0.963190000000    -0.105547   
C118     C      0.695430000000     0.474230000000     0.004350000000     0.0242196  
C119     C      0.694180000000     0.507720000000     0.006890000000     0.0678827  
C120     C      0.700730000000     0.425620000000     0.050410000000     0.0722119  
C121     C      0.689160000000     0.427560000000     0.952910000000     0.0719553  
C122     C      0.689620000000     0.459060000000     0.953810000000    -0.0804535  
C123     C      0.301360000000     0.738980000000     0.823530000000     0.244268   
C124     C      0.260160000000     0.703930000000     0.829190000000     0.0838374  
C125     C      0.286950000000     0.753410000000     0.777990000000    -0.158141   
C126     C      0.243880000000     0.789550000000     0.703240000000    -0.0803587  
C127     C      0.245360000000     0.717840000000     0.783710000000    -0.105053   
C128     C      0.243350000000     0.758070000000     0.708870000000     0.0249504  
C129     C      0.258690000000     0.742930000000     0.757500000000     0.0675471  
C130     C      0.229930000000     0.803390000000     0.656790000000     0.0736346  
C131     C      0.214540000000     0.755790000000     0.621410000000     0.0738949  
C132     C      0.228310000000     0.741200000000     0.667280000000    -0.0807012  
C133     C      0.250720000000     0.788570000000     0.339930000000     0.246372   
C134     C      0.201200000000     0.776170000000     0.304330000000     0.0855831  
C135     C      0.264440000000     0.774410000000     0.293900000000    -0.158379   
C136     C      0.286890000000     0.757370000000     0.177660000000    -0.0790893  
C137     C      0.214260000000     0.762140000000     0.257830000000    -0.105282   
C138     C      0.260530000000     0.745560000000     0.203400000000     0.0246997  
C139     C      0.246250000000     0.760970000000     0.252210000000     0.0686447  
C140     C      0.300140000000     0.742380000000     0.132300000000     0.0737708  
C141     C      0.261790000000     0.704440000000     0.136670000000     0.0729166  
C142     C      0.248010000000     0.718760000000     0.182210000000    -0.0798748  
C143     C      0.437480000000     0.668690000000     0.044010000000     0.24463    
C144     C      0.438870000000     0.678210000000     0.945660000000     0.0852403  
C145     C      0.469680000000     0.668490000000     0.046090000000    -0.157613   
C146     C      0.537660000000     0.684150000000     0.043350000000    -0.0797849  
C147     C      0.470950000000     0.678040000000     0.946530000000    -0.104859   
C148     C      0.521000000000     0.671780000000     0.998400000000     0.0251551  
C149     C      0.486800000000     0.672950000000     0.997050000000     0.0679031  
C150     C      0.569740000000     0.682370000000     0.044190000000     0.0739631  
C151     C      0.569380000000     0.656630000000     0.957040000000     0.0742451  
C152     C      0.537320000000     0.657950000000     0.954900000000    -0.0806668  
C153     C      0.250880000000     0.201930000000     0.634390000000     0.244046   
C154     C      0.215920000000     0.242640000000     0.622260000000     0.0841991  
C155     C      0.264530000000     0.216670000000     0.680080000000    -0.15825    
C156     C      0.300000000000     0.259820000000     0.754440000000    -0.0801522  
C157     C      0.229240000000     0.257910000000     0.667450000000    -0.105236   
C158     C      0.268100000000     0.260670000000     0.745810000000     0.0247297  
C159     C      0.253800000000     0.244930000000     0.697130000000     0.0678039  
C160     C      0.313030000000     0.274160000000     0.800950000000     0.0734201  
C161     C      0.263830000000     0.290560000000     0.830520000000     0.0735253  
C162     C      0.250010000000     0.276420000000     0.784480000000    -0.0800893  
C163     C      0.298060000000     0.254390000000     0.117020000000     0.245026   
C164     C      0.277590000000     0.301450000000     0.146010000000     0.0846466  
C165     C      0.284220000000     0.240080000000     0.163040000000    -0.158673   
C166     C      0.267460000000     0.218750000000     0.280370000000    -0.0799492  
C167     C      0.263760000000     0.287790000000     0.192430000000    -0.105604   
C168     C      0.252260000000     0.241790000000     0.250690000000     0.0240509  
C169     C      0.266930000000     0.256740000000     0.201480000000     0.0680028  
C170     C      0.253280000000     0.204900000000     0.326330000000     0.0718745  
C171     C      0.209420000000     0.236140000000     0.314720000000     0.072005   
C172     C      0.222880000000     0.250410000000     0.268490000000    -0.0800789  
C173     C      0.445700000000     0.334100000000     0.934830000000     0.246085   
C174     C      0.442220000000     0.306700000000     0.020680000000     0.0858699  
C175     C      0.477830000000     0.332590000000     0.937500000000    -0.158692   
C176     C      0.544330000000     0.312100000000     0.937970000000    -0.0801891  
C177     C      0.474210000000     0.304760000000     0.024240000000    -0.105265   
C178     C      0.526580000000     0.316740000000     0.986180000000     0.0243401  
C179     C      0.492460000000     0.317920000000     0.982520000000     0.068459   
C180     C      0.576380000000     0.311970000000     0.941860000000     0.0726682  
C181     C      0.573860000000     0.320510000000     0.040090000000     0.0724803  
C182     C      0.541760000000     0.320770000000     0.037730000000    -0.079826   
C183     C      0.335600000000     0.436610000000     0.026980000000     0.245887   
C184     C      0.310360000000     0.434970000000     0.938200000000     0.0851466  
C185     C      0.333750000000     0.468120000000     0.026730000000    -0.158787   
C186     C      0.312900000000     0.533210000000     0.029430000000    -0.0801638  
C187     C      0.308100000000     0.466390000000     0.937010000000    -0.105277   
C188     C      0.318870000000     0.516940000000     0.980320000000     0.0239911  
C189     C      0.320050000000     0.483400000000     0.981440000000     0.0681861  
C190     C      0.313550000000     0.564690000000     0.028410000000     0.0719215  
C191     C      0.325100000000     0.564550000000     0.931080000000     0.0716214  
C192     C      0.324660000000     0.533030000000     0.930580000000    -0.080107   
H1       H      0.193120000000     0.075900000000     0.389060000000     0.0332206  
H2       H      0.153540000000     0.925450000000     0.546550000000     0.0299344  
H3       H      0.188030000000     0.021810000000     0.570650000000     0.0534414  
H4       H      0.155650000000     0.979870000000     0.546810000000     0.0596677  
H5       H      0.193310000000     0.021150000000     0.389420000000     0.0554477  
H6       H      0.223250000000     0.977470000000     0.415020000000     0.0827759  
H7       H      0.187090000000     0.076520000000     0.568470000000     0.034942   
H8       H      0.243750000000     0.915580000000     0.427500000000     0.156757   
H9       H      0.923840000000     0.854760000000     0.435300000000     0.0319839  
H10      H      0.081370000000     0.799140000000     0.556420000000     0.0291088  
H11      H      0.981520000000     0.770350000000     0.521380000000     0.051929   
H12      H      0.025890000000     0.795920000000     0.558100000000     0.0587133  
H13      H      0.979390000000     0.854460000000     0.429040000000     0.0549612  
H14      H      0.022370000000     0.829650000000     0.387850000000     0.0822216  
H15      H      0.925810000000     0.771920000000     0.528170000000     0.031911   
H16      H      0.085130000000     0.817150000000     0.354620000000     0.157284   
H17      H      0.789560000000     0.914830000000     0.446090000000     0.0345619  
H18      H      0.819860000000     0.069460000000     0.602200000000     0.028231   
H19      H      0.842690000000     0.969360000000     0.598620000000     0.0525608  
H20      H      0.814690000000     0.015130000000     0.608850000000     0.0586981  
H21      H      0.787820000000     0.969370000000     0.446670000000     0.0533062  
H22      H      0.821610000000     0.009380000000     0.428410000000     0.0834463  
H23      H      0.842690000000     0.914570000000     0.597880000000     0.0315118  
H24      H      0.804550000000     0.070550000000     0.398640000000     0.158083   
H25      H      0.084680000000     0.169030000000     0.390130000000     0.0333212  
H26      H      0.930060000000     0.207220000000     0.544880000000     0.0314739  
H27      H      0.031380000000     0.183730000000     0.570620000000     0.05263    
H28      H      0.985530000000     0.211550000000     0.540450000000     0.059563   
H29      H      0.028880000000     0.168760000000     0.391460000000     0.0557271  
H30      H      0.988030000000     0.136430000000     0.426360000000     0.0829073  
H31      H      0.087210000000     0.184350000000     0.567500000000     0.0327415  
H32      H      0.928830000000     0.110040000000     0.449380000000     0.158506   
H33      H      0.678340000000     0.727660000000     0.848190000000     0.0330862  
H34      H      0.827390000000     0.783090000000     0.693930000000     0.0293635  
H35      H      0.787710000000     0.708710000000     0.806880000000     0.0520584  
H36      H      0.804520000000     0.758050000000     0.774270000000     0.0586439  
H37      H      0.701900000000     0.753680000000     0.769580000000     0.0554088  
H38      H      0.721810000000     0.743380000000     0.677610000000     0.0827541  
H39      H      0.763480000000     0.683570000000     0.886170000000     0.0315104  
H40      H      0.745980000000     0.751130000000     0.565730000000     0.156578   
H41      H      0.706280000000     0.749220000000     0.110970000000     0.0322995  
H42      H      0.826390000000     0.747690000000     0.360270000000     0.0282748  
H43      H      0.762140000000     0.689680000000     0.254580000000     0.0524846  
H44      H      0.803810000000     0.722240000000     0.280270000000     0.0580944  
H45      H      0.731150000000     0.775320000000     0.188060000000     0.0529477  
H46      H      0.726460000000     0.782920000000     0.286270000000     0.0835987  
H47      H      0.737800000000     0.664460000000     0.175670000000     0.0314762  
H48      H      0.754300000000     0.831890000000     0.348780000000     0.158193   
H49      H      0.747420000000     0.192140000000     0.612120000000     0.0311965  
H50      H      0.759690000000     0.305430000000     0.859960000000     0.0295112  
H51      H      0.813010000000     0.231460000000     0.765080000000     0.0534603  
H52      H      0.783850000000     0.279300000000     0.782730000000     0.0593103  
H53      H      0.723350000000     0.216550000000     0.691930000000     0.052727   
H54      H      0.716050000000     0.208840000000     0.795480000000     0.0828355  
H55      H      0.836320000000     0.206910000000     0.684700000000     0.0335161  
H56      H      0.668780000000     0.241080000000     0.856380000000     0.157273   
H57      H      0.769790000000     0.294360000000     0.116560000000     0.0327239  
H58      H      0.762560000000     0.171030000000     0.354830000000     0.0305838  
H59      H      0.705590000000     0.234740000000     0.246540000000     0.0525968  
H60      H      0.738970000000     0.194860000000     0.274010000000     0.0597775  
H61      H      0.793960000000     0.270210000000     0.197170000000     0.0551571  
H62      H      0.797640000000     0.272250000000     0.297080000000     0.0819572  
H63      H      0.682480000000     0.258360000000     0.164410000000     0.0336351  
H64      H      0.815890000000     0.262390000000     0.412920000000     0.154027   
H65      H      0.705150000000     0.413150000000     0.088980000000     0.0319659  
H66      H      0.712540000000     0.569720000000     0.930420000000     0.0295481  
H67      H      0.684570000000     0.471390000000     0.915430000000     0.0527944  
H68      H      0.716970000000     0.515330000000     0.927330000000     0.0587266  
H69      H      0.706610000000     0.467820000000     0.092560000000     0.0526037  
H70      H      0.670940000000     0.509190000000     0.087030000000     0.0827063  
H71      H      0.684050000000     0.416650000000     0.913220000000     0.0316726  
H72      H      0.681660000000     0.570130000000     0.127130000000     0.157097   
H73      H      0.230910000000     0.827790000000     0.653960000000     0.0325029  
H74      H      0.248850000000     0.684670000000     0.848300000000     0.028901   
H75      H      0.227630000000     0.716800000000     0.669500000000     0.0526804  
H76      H      0.223340000000     0.709170000000     0.769760000000     0.0587186  
H77      H      0.254790000000     0.803540000000     0.734770000000     0.0551891  
H78      H      0.298280000000     0.772460000000     0.758280000000     0.082914   
H79      H      0.203330000000     0.741940000000     0.589930000000     0.0321094  
H80      H      0.344830000000     0.739260000000     0.819560000000     0.158399   
H81      H      0.320530000000     0.752210000000     0.113570000000     0.0355958  
H82      H      0.176310000000     0.776420000000     0.306800000000     0.0299846  
H83      H      0.227940000000     0.708550000000     0.201200000000     0.0528523  
H84      H      0.199240000000     0.752500000000     0.226210000000     0.0591355  
H85      H      0.297100000000     0.778250000000     0.192030000000     0.0545551  
H86      H      0.289300000000     0.773630000000     0.291500000000     0.0838666  
H87      H      0.251490000000     0.683670000000     0.121760000000     0.0331822  
H88      H      0.272880000000     0.822310000000     0.366980000000     0.160251   
H89      H      0.581810000000     0.692190000000     0.079680000000     0.0334517  
H90      H      0.427650000000     0.682210000000     0.905460000000     0.0306234  
H91      H      0.525430000000     0.647680000000     0.919740000000     0.0529973  
H92      H      0.483220000000     0.682100000000     0.907700000000     0.0597583  
H93      H      0.526050000000     0.695420000000     0.077500000000     0.0557946  
H94      H      0.481080000000     0.664130000000     0.085930000000     0.0829435  
H95      H      0.581110000000     0.645580000000     0.922690000000     0.0326127  
H96      H      0.419040000000     0.641770000000     0.095900000000     0.155567   
H97      H      0.337790000000     0.272910000000     0.806150000000     0.0323727  
H98      H      0.196910000000     0.253590000000     0.600640000000     0.0294491  
H99      H      0.225240000000     0.277380000000     0.779890000000     0.0533423  
H100     H      0.220450000000     0.279920000000     0.678630000000     0.0588154  
H101     H      0.314940000000     0.248340000000     0.725190000000     0.0527747  
H102     H      0.283220000000     0.205680000000     0.702440000000     0.0831583  
H103     H      0.249040000000     0.302320000000     0.859720000000     0.0322684  
H104     H      0.278650000000     0.178450000000     0.591970000000     0.155228   
H105     H      0.265800000000     0.187190000000     0.348210000000     0.0321755  
H106     H      0.274500000000     0.325590000000     0.140890000000     0.0288243  
H107     H      0.210080000000     0.267810000000     0.246420000000     0.0528181  
H108     H      0.250970000000     0.301680000000     0.221440000000     0.0585701  
H109     H      0.290370000000     0.211640000000     0.268680000000     0.0527134  
H110     H      0.286830000000     0.215910000000     0.168070000000     0.0829297  
H111     H      0.186620000000     0.243390000000     0.327000000000     0.0327032  
H112     H      0.335950000000     0.236930000000     0.095700000000     0.15835    
H113     H      0.589290000000     0.308440000000     0.903570000000     0.0321746  
H114     H      0.429050000000     0.296260000000     0.054150000000     0.0295752  
H115     H      0.528980000000     0.324760000000     0.075950000000     0.0534856  
H116     H      0.484530000000     0.292810000000     0.059410000000     0.0594985  
H117     H      0.533570000000     0.308410000000     0.897410000000     0.0527719  
H118     H      0.491170000000     0.343380000000     0.904700000000     0.0828238  
H119     H      0.584770000000     0.324020000000     0.080650000000     0.0330077  
H120     H      0.429580000000     0.333290000000     0.860750000000     0.157195   
H121     H      0.309110000000     0.576420000000     0.067440000000     0.0333525  
H122     H      0.300950000000     0.422750000000     0.902660000000     0.0295499  
H123     H      0.329670000000     0.521400000000     0.891760000000     0.0531635  
H124     H      0.296930000000     0.477240000000     0.901470000000     0.0590321  
H125     H      0.307770000000     0.521730000000     0.068580000000     0.0527433  
H126     H      0.343600000000     0.480490000000     0.061630000000     0.0829262  
H127     H      0.330160000000     0.576200000000     0.891980000000     0.0316611  
H128     H      0.332640000000     0.419020000000     0.099460000000     0.15654    
In1      In     0.334420000000     0.328660000000     0.975870000000     2.41839    
In2      In     0.328450000000     0.671660000000     0.982890000000     2.41587    
In3      In     0.684480000000     0.319600000000     0.999920000000     2.41717    
In4      In     0.678860000000     0.662310000000     0.006390000000     2.41999    
In5      In     0.833770000000     0.162130000000     0.503960000000     2.41048    
In6      In     0.828540000000     0.820160000000     0.506130000000     2.40972    
In7      In     0.177010000000     0.828160000000     0.479600000000     2.41487    
In8      In     0.183430000000     0.171790000000     0.476150000000     2.4149     
N1       N      0.186520000000     0.919900000000     0.480470000000    -0.222655   
N2       N      0.189840000000     0.080080000000     0.478640000000    -0.192732   
N3       N      0.083940000000     0.816940000000     0.472400000000    -0.221805   
N4       N      0.920910000000     0.813530000000     0.482620000000    -0.193442   
N5       N      0.823000000000     0.070750000000     0.512160000000    -0.221864   
N6       N      0.816700000000     0.910880000000     0.521350000000    -0.192872   
N7       N      0.926990000000     0.169620000000     0.488560000000    -0.220779   
N8       N      0.089890000000     0.176480000000     0.478740000000    -0.193081   
N9       N      0.787980000000     0.778060000000     0.640010000000    -0.222804   
N10      N      0.719210000000     0.703760000000     0.872690000000    -0.193483   
N11      N      0.790030000000     0.780090000000     0.368790000000    -0.220721   
N12      N      0.720220000000     0.705020000000     0.137930000000    -0.193985   
N13      N      0.724010000000     0.272580000000     0.872260000000    -0.221809   
N14      N      0.793550000000     0.197960000000     0.642600000000    -0.19277    
N15      N      0.793970000000     0.207250000000     0.372120000000    -0.222792   
N16      N      0.724460000000     0.278040000000     0.134740000000    -0.192587   
N17      N      0.689520000000     0.570920000000     0.010060000000    -0.221799   
N18      N      0.694200000000     0.411050000000     0.001020000000    -0.194316   
N19      N      0.287860000000     0.714370000000     0.849190000000    -0.221919   
N20      N      0.215510000000     0.786610000000     0.616160000000    -0.193772   
N21      N      0.219150000000     0.789180000000     0.345250000000    -0.221731   
N22      N      0.287710000000     0.716110000000     0.112150000000    -0.192229   
N23      N      0.422170000000     0.673460000000     0.993770000000    -0.221721   
N24      N      0.585400000000     0.668650000000     0.001420000000    -0.19344    
N25      N      0.226440000000     0.214840000000     0.605900000000    -0.221558   
N26      N      0.295050000000     0.289270000000     0.838750000000    -0.193397   
N27      N      0.294610000000     0.285020000000     0.108510000000    -0.222319   
N28      N      0.224500000000     0.213540000000     0.343240000000    -0.193095   
N29      N      0.427990000000     0.321440000000     0.976740000000    -0.222132   
N30      N      0.590970000000     0.316380000000     0.992450000000    -0.192619   
N31      N      0.324270000000     0.420130000000     0.982370000000    -0.222175   
N32      N      0.320010000000     0.580170000000     0.979790000000    -0.193076   
O1       O      0.304710000000     0.327520000000     0.054800000000    -0.5054     
O2       O      0.324280000000     0.286330000000     0.027770000000    -0.49025    
O3       O      0.292850000000     0.317090000000     0.920600000000    -0.500372   
O4       O      0.317150000000     0.373680000000     0.940140000000    -0.502099   
O5       O      0.379830000000     0.312310000000     0.014100000000    -0.501185   
O6       O      0.340320000000     0.374140000000     0.018740000000    -0.490926   
O7       O      0.336730000000     0.301660000000     0.894580000000    -0.502149   
O8       O      0.381670000000     0.337090000000     0.937740000000    -0.489152   
O9       O      0.289940000000     0.677040000000     0.917600000000    -0.505464   
O10      O      0.326500000000     0.708610000000     0.915890000000    -0.487787   
O11      O      0.290510000000     0.677350000000     0.047870000000    -0.496719   
O12      O      0.318600000000     0.626250000000     0.024490000000    -0.496716   
O13      O      0.376230000000     0.676510000000     0.944540000000    -0.499371   
O14      O      0.328310000000     0.626400000000     0.937050000000    -0.502067   
O15      O      0.325590000000     0.710670000000     0.045160000000    -0.494982   
O16      O      0.373510000000     0.669530000000     0.032590000000    -0.490147   
O17      O      0.725860000000     0.308480000000     0.055660000000    -0.501208   
O18      O      0.682880000000     0.288860000000     0.077190000000    -0.494198   
O19      O      0.688130000000     0.278500000000     0.943100000000    -0.490597   
O20      O      0.639160000000     0.313940000000     0.952390000000    -0.498151   
O21      O      0.695010000000     0.364180000000     0.043710000000    -0.505789   
O22      O      0.637020000000     0.321170000000     0.040540000000    -0.495217   
O23      O      0.720330000000     0.313860000000     0.931010000000    -0.503302   
O24      O      0.685560000000     0.365710000000     0.956170000000    -0.502991   
O25      O      0.707870000000     0.662450000000     0.086930000000    -0.501732   
O26      O      0.690540000000     0.704370000000     0.057160000000    -0.504065   
O27      O      0.720100000000     0.671730000000     0.949710000000    -0.49943    
O28      O      0.695910000000     0.617980000000     0.969140000000    -0.500727   
O29      O      0.632730000000     0.676860000000     0.043370000000    -0.49957    
O30      O      0.673480000000     0.616260000000     0.048080000000    -0.490821   
O31      O      0.677720000000     0.693200000000     0.929600000000    -0.503061   
O32      O      0.632230000000     0.654590000000     0.964520000000    -0.502379   
O33      O      0.798080000000     0.167060000000     0.433920000000    -0.500897   
O34      O      0.829920000000     0.202710000000     0.444140000000    -0.495558   
O35      O      0.791680000000     0.176390000000     0.554380000000    -0.50541    
O36      O      0.828090000000     0.117800000000     0.553290000000    -0.505387   
O37      O      0.879910000000     0.184800000000     0.523610000000    -0.488226   
O38      O      0.828100000000     0.116020000000     0.464270000000    -0.481205   
O39      O      0.835710000000     0.181880000000     0.592260000000    -0.492422   
O40      O      0.879920000000     0.147850000000     0.467620000000    -0.487857   
O41      O      0.828150000000     0.784520000000     0.436720000000    -0.50287    
O42      O      0.791700000000     0.816300000000     0.438520000000    -0.47325    
O43      O      0.828830000000     0.802340000000     0.597060000000    -0.498368   
O44      O      0.874570000000     0.795790000000     0.516780000000    -0.494874   
O45      O      0.810270000000     0.865550000000     0.475720000000    -0.490969   
O46      O      0.873750000000     0.836380000000     0.468750000000    -0.509061   
O47      O      0.788130000000     0.797050000000     0.549220000000    -0.496577   
O48      O      0.832830000000     0.864440000000     0.555060000000    -0.501306   
O49      O      0.188620000000     0.786240000000     0.532040000000    -0.500829   
O50      O      0.203170000000     0.828750000000     0.563140000000    -0.505035   
O51      O      0.176310000000     0.802550000000     0.396650000000    -0.499887   
O52      O      0.130630000000     0.832010000000     0.435060000000    -0.483934   
O53      O      0.197950000000     0.872220000000     0.446710000000    -0.489228   
O54      O      0.131320000000     0.812220000000     0.516440000000    -0.503106   
O55      O      0.219760000000     0.815240000000     0.429620000000    -0.487074   
O56      O      0.166330000000     0.875030000000     0.513820000000    -0.505646   
O57      O      0.184530000000     0.206950000000     0.405710000000    -0.500325   
O58      O      0.223380000000     0.178280000000     0.415160000000    -0.500942   
O59      O      0.189520000000     0.211670000000     0.535690000000    -0.502364   
O60      O      0.137700000000     0.178530000000     0.521410000000    -0.497387   
O61      O      0.189350000000     0.126220000000     0.432940000000    -0.498546   
O62      O      0.136340000000     0.170910000000     0.433340000000    -0.499384   
O63      O      0.220330000000     0.174850000000     0.544380000000    -0.4884     
O64      O      0.185230000000     0.126390000000     0.521860000000    -0.495967   
O65      O      0.224180000000     0.919340000000     0.407010000000    -0.287676   
O66      O      0.081140000000     0.835410000000     0.377380000000    -0.286502   
O67      O      0.825880000000     0.066520000000     0.411610000000    -0.283332   
O68      O      0.929320000000     0.128010000000     0.424360000000    -0.283471   
O69      O      0.741400000000     0.769560000000     0.587620000000    -0.284553   
O70      O      0.746880000000     0.813940000000     0.369780000000    -0.28254    
O71      O      0.686490000000     0.232910000000     0.878060000000    -0.287574   
O72      O      0.826510000000     0.250560000000     0.383540000000    -0.287194   
O73      O      0.664740000000     0.566600000000     0.099800000000    -0.287713   
O74      O      0.329120000000     0.750180000000     0.841660000000    -0.286617   
O75      O      0.269660000000     0.801210000000     0.379740000000    -0.288654   
O76      O      0.421840000000     0.663940000000     0.093290000000    -0.285979   
O77      O      0.262250000000     0.174180000000     0.619730000000    -0.285541   
O78      O      0.314660000000     0.236930000000     0.080550000000    -0.288638   
O79      O      0.432600000000     0.348950000000     0.889900000000    -0.287354   
O80      O      0.349470000000     0.422860000000     0.072350000000    -0.287058   


