data_structure

_audit_creation_method RASPA-1.0
_audit_creation_date 2023-5-22
_audit_author_name 'Poobodin Mano'

_cell_length_a    34.9686
_cell_length_b    35.1719
_cell_length_c    35.4167
_cell_angle_alpha 90
_cell_angle_beta  90
_cell_angle_gamma 90
_cell_volume      43559.4

_symmetry_cell_setting          triclinic
_symmetry_space_group_name_Hall 'P 1'
_symmetry_space_group_name_H-M  'P 1'
_symmetry_Int_Tables_number     1

_symmetry_equiv_pos_as_xyz 'x,y,z'

loop_
_atom_site_label
_atom_site_type_symbol
_atom_site_fract_x
_atom_site_fract_y
_atom_site_fract_z
_atom_site_charge
C1       C      0.910690000000     0.407100000000     0.912480000000     0.410699   
C2       C      0.826290000000     0.410060000000     0.816340000000     0.412658   
C3       C      0.908910000000     0.323500000000     0.816230000000     0.414103   
C4       C      0.823380000000     0.324530000000     0.912490000000     0.416092   
C5       C      0.075680000000     0.569030000000     0.069120000000     0.414211   
C6       C      0.075150000000     0.657040000000     0.157470000000     0.411447   
C7       C      0.164140000000     0.569840000000     0.158060000000     0.419275   
C8       C      0.163240000000     0.658980000000     0.067110000000     0.414847   
C9       C      0.323650000000     0.821410000000     0.905680000000     0.416217   
C10      C      0.412260000000     0.821740000000     0.816130000000     0.417215   
C11      C      0.322400000000     0.910830000000     0.817110000000     0.412179   
C12      C      0.410840000000     0.910770000000     0.905620000000     0.412079   
C13      C      0.572770000000     0.070300000000     0.068470000000     0.415864   
C14      C      0.575300000000     0.158790000000     0.159030000000     0.410029   
C15      C      0.662720000000     0.072060000000     0.159630000000     0.419931   
C16      C      0.661800000000     0.159810000000     0.069890000000     0.408474   
C17      C      0.418830000000     0.410780000000     0.404960000000     0.416064   
C18      C      0.323830000000     0.324190000000     0.407200000000     0.415983   
C19      C      0.323580000000     0.407440000000     0.319840000000     0.413673   
C20      C      0.418880000000     0.322170000000     0.322350000000     0.413921   
C21      C      0.665470000000     0.572420000000     0.655920000000     0.415149   
C22      C      0.577460000000     0.573380000000     0.567180000000     0.413323   
C23      C      0.576120000000     0.662030000000     0.655770000000     0.415024   
C24      C      0.667260000000     0.660430000000     0.567400000000     0.415917   
C25      C      0.912910000000     0.817560000000     0.318620000000     0.415057   
C26      C      0.827170000000     0.915240000000     0.321630000000     0.409449   
C27      C      0.830050000000     0.816410000000     0.402980000000     0.407686   
C28      C      0.911800000000     0.915600000000     0.403900000000     0.412756   
C29      C      0.162290000000     0.162320000000     0.567530000000     0.417654   
C30      C      0.160870000000     0.073790000000     0.657300000000     0.411443   
C31      C      0.072090000000     0.162920000000     0.655950000000     0.417237   
C32      C      0.072330000000     0.074520000000     0.568390000000     0.413334   
C33      C      0.986990000000     0.034750000000     0.523540000000    -0.0861722  
C34      C      0.003090000000     0.008740000000     0.498070000000     0.0357249  
C35      C      0.043030000000     0.005190000000     0.497090000000    -0.0863648  
C36      C      0.065750000000     0.027440000000     0.520800000000     0.0745089  
C37      C      0.010570000000     0.056290000000     0.547110000000     0.0734738  
C38      C      0.978470000000     0.985270000000     0.472880000000     0.0357569  
C39      C      0.943190000000     0.971180000000     0.485490000000    -0.0862247  
C40      C      0.920900000000     0.948500000000     0.461770000000     0.0735864  
C41      C      0.967370000000     0.953250000000     0.413250000000     0.0737227  
C42      C      0.990200000000     0.976310000000     0.436070000000    -0.0863327  
C43      C      0.798360000000     0.759560000000     0.483580000000    -0.0864698  
C44      C      0.762310000000     0.747340000000     0.471330000000     0.0356629  
C45      C      0.750070000000     0.757740000000     0.435110000000    -0.0864046  
C46      C      0.773450000000     0.780290000000     0.412290000000     0.073509   
C47      C      0.820900000000     0.782250000000     0.460100000000     0.073761   
C48      C      0.737360000000     0.724370000000     0.496440000000     0.035999   
C49      C      0.752540000000     0.694780000000     0.518260000000    -0.086734   
C50      C      0.728650000000     0.673660000000     0.541890000000     0.0735275  
C51      C      0.675140000000     0.710580000000     0.523190000000     0.0746667  
C52      C      0.698160000000     0.732130000000     0.499120000000    -0.0868707  
C53      C      0.244670000000     0.216130000000     0.532940000000    -0.086505   
C54      C      0.230320000000     0.231190000000     0.499150000000     0.0358024  
C55      C      0.192700000000     0.222370000000     0.488750000000    -0.0867622  
C56      C      0.170370000000     0.199180000000     0.511940000000     0.0743092  
C57      C      0.221550000000     0.193000000000     0.555440000000     0.0733837  
C58      C      0.254460000000     0.255980000000     0.474920000000     0.0358851  
C59      C      0.278600000000     0.283340000000     0.491000000000    -0.0866414  
C60      C      0.301380000000     0.306150000000     0.467870000000     0.0739588  
C61      C      0.276880000000     0.275740000000     0.413220000000     0.0743692  
C62      C      0.253680000000     0.252470000000     0.435500000000    -0.0866991  
C63      C      0.489480000000     0.439950000000     0.475390000000    -0.0867743  
C64      C      0.487590000000     0.479640000000     0.472570000000     0.0358445  
C65      C      0.462660000000     0.495660000000     0.446000000000    -0.0866075  
C66      C      0.440060000000     0.472160000000     0.423380000000     0.0737243  
C67      C      0.466580000000     0.417300000000     0.452210000000     0.0741711  
C68      C      0.511270000000     0.504210000000     0.497390000000     0.0358794  
C69      C      0.515820000000     0.495540000000     0.535750000000    -0.0867552  
C70      C      0.537960000000     0.519100000000     0.558750000000     0.0746359  
C71      C      0.551400000000     0.559520000000     0.506820000000     0.073597   
C72      C      0.529360000000     0.536670000000     0.483040000000    -0.0866245  
C73      C      0.796820000000     0.981840000000     0.248170000000    -0.0864316  
C74      C      0.757490000000     0.984370000000     0.255240000000     0.0355614  
C75      C      0.742270000000     0.964090000000     0.285770000000    -0.0864219  
C76      C      0.766160000000     0.941620000000     0.308150000000     0.0733356  
C77      C      0.819830000000     0.958860000000     0.270950000000     0.0734644  
C78      C      0.732400000000     0.007600000000     0.230540000000     0.0361438  
C79      C      0.743810000000     0.043800000000     0.218530000000    -0.0870782  
C80      C      0.720010000000     0.065080000000     0.194950000000     0.0747919  
C81      C      0.674020000000     0.015510000000     0.194570000000     0.0743988  
C82      C      0.696980000000     0.993580000000     0.218380000000    -0.086891   
C83      C      0.485470000000     0.292650000000     0.248300000000    -0.0868537  
C84      C      0.487290000000     0.253350000000     0.254420000000     0.035902   
C85      C      0.466340000000     0.237770000000     0.284350000000    -0.0866673  
C86      C      0.443760000000     0.261280000000     0.306990000000     0.073805   
C87      C      0.462860000000     0.315370000000     0.271700000000     0.0742154  
C88      C      0.510580000000     0.228660000000     0.229420000000     0.0358921  
C89      C      0.509660000000     0.233440000000     0.190180000000    -0.0867334  
C90      C      0.531370000000     0.209650000000     0.167000000000     0.0746928  
C91      C      0.555280000000     0.176860000000     0.220550000000     0.073645   
C92      C      0.533680000000     0.199910000000     0.244540000000    -0.0866546  
C93      C      0.287360000000     0.994010000000     0.765560000000    -0.0860876  
C94      C      0.253310000000     0.980050000000     0.749910000000     0.0355519  
C95      C      0.242990000000     0.942290000000     0.757490000000    -0.0863321  
C96      C      0.266450000000     0.919520000000     0.780030000000     0.0738616  
C97      C      0.310100000000     0.970470000000     0.788030000000     0.0727206  
C98      C      0.228820000000     0.004670000000     0.725720000000     0.0356183  
C99      C      0.223500000000     0.043220000000     0.734350000000    -0.0863695  
C100     C      0.200630000000     0.065940000000     0.711170000000     0.0739311  
C101     C      0.187880000000     0.013410000000     0.671150000000     0.072921   
C102     C      0.210610000000     0.989890000000     0.693650000000    -0.0861524  
C103     C      0.494000000000     0.765620000000     0.783640000000    -0.0866918  
C104     C      0.481680000000     0.754150000000     0.747760000000     0.0357256  
C105     C      0.445500000000     0.765860000000     0.735360000000    -0.0865664  
C106     C      0.422660000000     0.788580000000     0.758570000000     0.0732597  
C107     C      0.470320000000     0.788140000000     0.806200000000     0.0740365  
C108     C      0.506450000000     0.730070000000     0.723450000000     0.0356432  
C109     C      0.545730000000     0.737320000000     0.720470000000    -0.0866425  
C110     C      0.568610000000     0.714350000000     0.697560000000     0.0740473  
C111     C      0.514830000000     0.676980000000     0.680630000000     0.073064   
C112     C      0.491060000000     0.699520000000     0.703100000000    -0.0864286  
C113     C      0.483140000000     0.979770000000     0.935360000000    -0.0864694  
C114     C      0.479060000000     0.978920000000     0.974740000000     0.0356933  
C115     C      0.451320000000     0.954780000000     0.990310000000    -0.0861485  
C116     C      0.428600000000     0.932300000000     0.966760000000     0.073103   
C117     C      0.460040000000     0.956790000000     0.912670000000     0.0742523  
C118     C      0.503680000000     0.002980000000     0.999380000000     0.0354206  
C119     C      0.542370000000     0.008780000000     0.990730000000    -0.0862165  
C120     C      0.565050000000     0.031460000000     0.014120000000     0.0728045  
C121     C      0.512310000000     0.042770000000     0.054660000000     0.0730627  
C122     C      0.488770000000     0.020370000000     0.031830000000    -0.0862137  
C123     C      0.989480000000     0.699150000000     0.199490000000    -0.0862487  
C124     C      0.005390000000     0.723360000000     0.226720000000     0.035678   
C125     C      0.045310000000     0.724670000000     0.230190000000    -0.086418   
C126     C      0.068220000000     0.702210000000     0.206850000000     0.0742482  
C127     C      0.013260000000     0.677180000000     0.176520000000     0.073201   
C128     C      0.980560000000     0.747370000000     0.251140000000     0.0356973  
C129     C      0.947660000000     0.764760000000     0.236530000000    -0.0863241  
C130     C      0.925080000000     0.787800000000     0.259640000000     0.0734342  
C131     C      0.966570000000     0.776800000000     0.311460000000     0.073494   
C132     C      0.989710000000     0.753470000000     0.289200000000    -0.0864318  
C133     C      0.223120000000     0.690220000000     0.988210000000    -0.0863776  
C134     C      0.230910000000     0.727980000000     0.998310000000     0.0355342  
C135     C      0.215230000000     0.742040000000     0.031950000000    -0.086111   
C136     C      0.192530000000     0.718590000000     0.054550000000     0.0729274  
C137     C      0.200330000000     0.667540000000     0.011520000000     0.0737281  
C138     C      0.255300000000     0.752530000000     0.973960000000     0.035872   
C139     C      0.287820000000     0.737790000000     0.956020000000    -0.0863984  
C140     C      0.310400000000     0.761260000000     0.933310000000     0.0736672  
C141     C      0.269600000000     0.813650000000     0.945600000000     0.0747121  
C142     C      0.246360000000     0.791000000000     0.968480000000    -0.0866025  
C143     C      0.246560000000     0.517760000000     0.195070000000    -0.0867418  
C144     C      0.230820000000     0.500300000000     0.227070000000     0.0360127  
C145     C      0.192260000000     0.506940000000     0.235510000000    -0.0869367  
C146     C      0.170370000000     0.530360000000     0.212120000000     0.0746391  
C147     C      0.223870000000     0.541100000000     0.172370000000     0.0739408  
C148     C      0.254550000000     0.475330000000     0.251490000000     0.0357475  
C149     C      0.280580000000     0.449640000000     0.235570000000    -0.0865437  
C150     C      0.303130000000     0.426810000000     0.258890000000     0.0737114  
C151     C      0.274700000000     0.453930000000     0.313400000000     0.074093   
C152     C      0.251610000000     0.477110000000     0.290910000000    -0.0865652  
C153     C      0.986290000000     0.294080000000     0.753160000000    -0.0862985  
C154     C      0.976950000000     0.255880000000     0.746540000000     0.0357527  
C155     C      0.943730000000     0.241220000000     0.763260000000    -0.0864181  
C156     C      0.921150000000     0.264340000000     0.786280000000     0.0739524  
C157     C      0.962920000000     0.316460000000     0.776160000000     0.0739034  
C158     C      0.001840000000     0.231410000000     0.722630000000     0.035975   
C159     C      0.019780000000     0.246060000000     0.690360000000    -0.0865425  
C160     C      0.043290000000     0.222760000000     0.668450000000     0.0739906  
C161     C      0.031590000000     0.170600000000     0.709250000000     0.0748226  
C162     C      0.008080000000     0.193150000000     0.731940000000    -0.086647   
C163     C      0.737420000000     0.191500000000     0.005830000000    -0.0863466  
C164     C      0.730700000000     0.230760000000     0.004490000000     0.0354984  
C165     C      0.700230000000     0.245610000000     0.025530000000    -0.0862095  
C166     C      0.677410000000     0.221430000000     0.047220000000     0.0725669  
C167     C      0.714010000000     0.168140000000     0.027790000000     0.0736884  
C168     C      0.755190000000     0.256020000000     0.981080000000     0.0358637  
C169     C      0.794830000000     0.250440000000     0.979270000000    -0.0867381  
C170     C      0.817300000000     0.273950000000     0.956520000000     0.0739286  
C171     C      0.762430000000     0.308670000000     0.937550000000     0.07362    
C172     C      0.739110000000     0.285730000000     0.960030000000    -0.0865855  
C173     C      0.755380000000     0.439110000000     0.746080000000    -0.0865045  
C174     C      0.759320000000     0.478750000000     0.746800000000     0.0356315  
C175     C      0.786830000000     0.494730000000     0.770770000000    -0.0864269  
C176     C      0.809360000000     0.471270000000     0.793500000000     0.0734352  
C177     C      0.778260000000     0.416500000000     0.769330000000     0.0736786  
C178     C      0.734670000000     0.503330000000     0.722920000000     0.0359815  
C179     C      0.726600000000     0.493410000000     0.685450000000    -0.0869519  
C180     C      0.703380000000     0.516900000000     0.663420000000     0.0746474  
C181     C      0.695610000000     0.559610000000     0.714660000000     0.0736232  
C182     C      0.718860000000     0.536890000000     0.737440000000    -0.0866927  
C183     C      0.941240000000     0.483230000000     0.976080000000    -0.0865563  
C184     C      0.980090000000     0.474720000000     0.980710000000     0.0357334  
C185     C      0.994910000000     0.442500000000     0.962640000000    -0.0864586  
C186     C      0.971170000000     0.419980000000     0.940170000000     0.0736985  
C187     C      0.918260000000     0.459940000000     0.953590000000     0.073809   
C188     C      0.005130000000     0.499490000000     0.003980000000     0.0360082  
C189     C      0.002560000000     0.539160000000     0.001430000000    -0.0868048  
C190     C      0.026570000000     0.562040000000     0.023280000000     0.0747059  
C191     C      0.055400000000     0.507430000000     0.050350000000     0.0738883  
C192     C      0.032010000000     0.483700000000     0.028750000000    -0.0867545  
H1       H      0.056810000000     0.984990000000     0.478450000000     0.0534129  
H2       H      0.096500000000     0.023840000000     0.519130000000     0.0314899  
H3       H      0.997020000000     0.076180000000     0.566310000000     0.0304698  
H4       H      0.956350000000     0.038940000000     0.524990000000     0.0530269  
H5       H      0.933100000000     0.976880000000     0.513830000000     0.0532718  
H6       H      0.894010000000     0.937830000000     0.472730000000     0.031196   
H7       H      0.977610000000     0.946740000000     0.385070000000     0.0307365  
H8       H      0.016810000000     0.987160000000     0.424740000000     0.0531796  
H9       H      0.722630000000     0.748410000000     0.424350000000     0.0536455  
H10      H      0.762880000000     0.787960000000     0.384530000000     0.0315956  
H11      H      0.848400000000     0.791610000000     0.470800000000     0.0316108  
H12      H      0.808780000000     0.752410000000     0.511490000000     0.0536689  
H13      H      0.782630000000     0.687620000000     0.516760000000     0.0534724  
H14      H      0.741410000000     0.650850000000     0.558190000000     0.0303459  
H15      H      0.644960000000     0.717520000000     0.524580000000     0.0309317  
H16      H      0.685370000000     0.755090000000     0.483120000000     0.0539383  
H17      H      0.180290000000     0.233760000000     0.463110000000     0.0534305  
H18      H      0.141330000000     0.193180000000     0.503010000000     0.0305527  
H19      H      0.233690000000     0.181850000000     0.581350000000     0.0301162  
H20      H      0.273770000000     0.221770000000     0.541810000000     0.0534464  
H21      H      0.279670000000     0.287430000000     0.521290000000     0.053548   
H22      H      0.319720000000     0.326950000000     0.481400000000     0.0308128  
H23      H      0.275710000000     0.271970000000     0.382850000000     0.0304976  
H24      H      0.235750000000     0.231430000000     0.421890000000     0.0534595  
H25      H      0.460040000000     0.526210000000     0.443150000000     0.0536312  
H26      H      0.420850000000     0.485630000000     0.403410000000     0.0306937  
H27      H      0.468780000000     0.386700000000     0.455280000000     0.0305281  
H28      H      0.508760000000     0.426390000000     0.495180000000     0.0535696  
H29      H      0.501940000000     0.470980000000     0.548100000000     0.0538037  
H30      H      0.540720000000     0.511520000000     0.588310000000     0.031099   
H31      H      0.565090000000     0.584310000000     0.494610000000     0.0307647  
H32      H      0.526930000000     0.544180000000     0.453470000000     0.0534163  
H33      H      0.712090000000     0.965680000000     0.292480000000     0.0537198  
H34      H      0.753290000000     0.926190000000     0.331420000000     0.0316453  
H35      H      0.850050000000     0.957210000000     0.264290000000     0.0310233  
H36      H      0.809670000000     0.996840000000     0.224670000000     0.053669   
H37      H      0.770820000000     0.055820000000     0.227590000000     0.0536379  
H38      H      0.729800000000     0.093020000000     0.186330000000     0.0304338  
H39      H      0.646910000000     0.003600000000     0.185550000000     0.0299601  
H40      H      0.687290000000     0.965550000000     0.226690000000     0.0538926  
H41      H      0.466760000000     0.207470000000     0.289830000000     0.0538204  
H42      H      0.427600000000     0.248130000000     0.329620000000     0.0308476  
H43      H      0.462090000000     0.345660000000     0.266030000000     0.0310139  
H44      H      0.501610000000     0.305840000000     0.225720000000     0.0538218  
H45      H      0.491830000000     0.255070000000     0.177360000000     0.0539978  
H46      H      0.529780000000     0.214110000000     0.136740000000     0.0321074  
H47      H      0.572960000000     0.155020000000     0.233300000000     0.0306772  
H48      H      0.535430000000     0.195530000000     0.274770000000     0.0536514  
H49      H      0.216680000000     0.930430000000     0.746470000000     0.0533402  
H50      H      0.257420000000     0.890500000000     0.785270000000     0.0309582  
H51      H      0.336280000000     0.982300000000     0.799490000000     0.0308963  
H52      H      0.296790000000     0.022810000000     0.760050000000     0.0532687  
H53      H      0.236530000000     0.055760000000     0.759130000000     0.0533439  
H54      H      0.197190000000     0.095600000000     0.718820000000     0.0309448  
H55      H      0.174430000000     0.000910000000     0.646510000000     0.031137   
H56      H      0.214310000000     0.960430000000     0.685560000000     0.0533399  
H57      H      0.435050000000     0.757960000000     0.707660000000     0.0534348  
H58      H      0.394910000000     0.797210000000     0.747920000000     0.0300826  
H59      H      0.480820000000     0.796310000000     0.833840000000     0.030514   
H60      H      0.521580000000     0.756840000000     0.794490000000     0.0536962  
H61      H      0.558710000000     0.760900000000     0.735400000000     0.0535603  
H62      H      0.598860000000     0.720940000000     0.695890000000     0.0307843  
H63      H      0.501890000000     0.653490000000     0.665460000000     0.0303689  
H64      H      0.460920000000     0.692680000000     0.704920000000     0.0535587  
H65      H      0.447480000000     0.952760000000     0.020590000000     0.0532404  
H66      H      0.407590000000     0.913890000000     0.979910000000     0.0304934  
H67      H      0.464080000000     0.958310000000     0.882350000000     0.031536   
H68      H      0.503750000000     0.998390000000     0.922000000000     0.0532959  
H69      H      0.555320000000     0.995470000000     0.966300000000     0.0531809  
H70      H      0.594860000000     0.035150000000     0.006490000000     0.0304406  
H71      H      0.499670000000     0.055790000000     0.079450000000     0.0301872  
H72      H      0.458930000000     0.017180000000     0.039370000000     0.0531683  
H73      H      0.058920000000     0.743380000000     0.250430000000     0.0534865  
H74      H      0.098970000000     0.704130000000     0.210330000000     0.031289   
H75      H      0.999840000000     0.658770000000     0.155840000000     0.0310058  
H76      H      0.958790000000     0.696780000000     0.196150000000     0.0531468  
H77      H      0.939700000000     0.761260000000     0.207180000000     0.0533497  
H78      H      0.900070000000     0.801010000000     0.247190000000     0.030665   
H79      H      0.974710000000     0.780940000000     0.340720000000     0.030438   
H80      H      0.014480000000     0.740110000000     0.301890000000     0.0532289  
H81      H      0.220880000000     0.770870000000     0.041160000000     0.0533405  
H82      H      0.181080000000     0.730500000000     0.080440000000     0.0308603  
H83      H      0.194930000000     0.638510000000     0.002700000000     0.030344   
H84      H      0.234160000000     0.678290000000     0.962220000000     0.0533432  
H85      H      0.296150000000     0.708390000000     0.959860000000     0.0534514  
H86      H      0.335360000000     0.748790000000     0.919990000000     0.0302827  
H87      H      0.261630000000     0.843220000000     0.941970000000     0.0309073  
H88      H      0.221240000000     0.803510000000     0.981350000000     0.0534119  
H89      H      0.178840000000     0.493700000000     0.259730000000     0.0535397  
H90      H      0.140570000000     0.534640000000     0.219470000000     0.0304207  
H91      H      0.237100000000     0.554150000000     0.147890000000     0.0300561  
H92      H      0.276380000000     0.513810000000     0.187800000000     0.053639   
H93      H      0.283350000000     0.446930000000     0.205230000000     0.053604   
H94      H      0.323000000000     0.407370000000     0.245490000000     0.0312125  
H95      H      0.271890000000     0.456390000000     0.343800000000     0.0306213  
H96      H      0.232120000000     0.496820000000     0.304400000000     0.0534894  
H97      H      0.934960000000     0.212100000000     0.758430000000     0.0533983  
H98      H      0.895790000000     0.251870000000     0.798820000000     0.0308448  
H99      H      0.971310000000     0.345760000000     0.780840000000     0.0309228  
H100     H      0.011910000000     0.306550000000     0.741270000000     0.053286   
H101     H      0.015370000000     0.275260000000     0.681700000000     0.0532206  
H102     H      0.056590000000     0.235170000000     0.643680000000     0.0304332  
H103     H      0.035770000000     0.141190000000     0.717460000000     0.0305544  
H104     H      0.995350000000     0.180710000000     0.756920000000     0.0535348  
H105     H      0.694270000000     0.275830000000     0.025680000000     0.0531855  
H106     H      0.654200000000     0.234020000000     0.063220000000     0.0313111  
H107     H      0.720070000000     0.137900000000     0.028020000000     0.0313633  
H108     H      0.760320000000     0.178730000000     0.989600000000     0.0535549  
H109     H      0.808530000000     0.228200000000     0.995520000000     0.0534893  
H110     H      0.847840000000     0.268630000000     0.955750000000     0.0304098  
H111     H      0.748870000000     0.331110000000     0.921370000000     0.0306436  
H112     H      0.708570000000     0.290830000000     0.960270000000     0.0534493  
H113     H      0.791180000000     0.525210000000     0.771810000000     0.0535796  
H114     H      0.830260000000     0.484710000000     0.811750000000     0.0313134  
H115     H      0.774100000000     0.385970000000     0.768280000000     0.0306721  
H116     H      0.734230000000     0.425620000000     0.728200000000     0.0535614  
H117     H      0.738550000000     0.467920000000     0.673010000000     0.0536275  
H118     H      0.697940000000     0.508360000000     0.634490000000     0.0309821  
H119     H      0.683810000000     0.585300000000     0.726950000000     0.0304336  
H120     H      0.723980000000     0.545350000000     0.766400000000     0.0536994  
H121     H      0.024860000000     0.435090000000     0.965210000000     0.0537003  
H122     H      0.983790000000     0.395520000000     0.926300000000     0.0313887  
H123     H      0.888350000000     0.467510000000     0.950600000000     0.0311793  
H124     H      0.928540000000     0.507590000000     0.989970000000     0.0536959  
H125     H      0.982490000000     0.552510000000     0.982280000000     0.0539216  
H126     H      0.023820000000     0.592620000000     0.020450000000     0.0311593  
H127     H      0.075710000000     0.494130000000     0.069350000000     0.0305788  
H128     H      0.034670000000     0.453180000000     0.031840000000     0.0536218  
In1      In     0.866940000000     0.366040000000     0.864520000000     2.41107    
In2      In     0.120330000000     0.613900000000     0.112660000000     2.40476    
In3      In     0.367380000000     0.865880000000     0.860690000000     2.39837    
In4      In     0.617820000000     0.114060000000     0.113470000000     2.39949    
In5      In     0.371380000000     0.366240000000     0.363800000000     2.41302    
In6      In     0.621430000000     0.617640000000     0.611990000000     2.40643    
In7      In     0.871110000000     0.866150000000     0.361340000000     2.41021    
In8      In     0.117340000000     0.118650000000     0.612350000000     2.40569    
N1       N      0.049600000000     0.052740000000     0.545580000000    -0.194094   
N2       N      0.933160000000     0.939270000000     0.426140000000    -0.194524   
N3       N      0.808340000000     0.792790000000     0.424930000000    -0.193261   
N4       N      0.690300000000     0.681560000000     0.544290000000    -0.194871   
N5       N      0.184710000000     0.184720000000     0.545010000000    -0.195539   
N6       N      0.300630000000     0.302190000000     0.429340000000    -0.19476    
N7       N      0.441910000000     0.433340000000     0.426650000000    -0.195119   
N8       N      0.555620000000     0.550760000000     0.544330000000    -0.194112   
N9       N      0.804510000000     0.938730000000     0.300480000000    -0.19381    
N10      N      0.685500000000     0.050940000000     0.182990000000    -0.19529    
N11      N      0.441930000000     0.299700000000     0.300530000000    -0.194428   
N12      N      0.554020000000     0.181680000000     0.182130000000    -0.193151   
N13      N      0.299710000000     0.933540000000     0.795120000000    -0.194218   
N14      N      0.183030000000     0.051110000000     0.679840000000    -0.1939     
N15      N      0.435000000000     0.799540000000     0.793690000000    -0.195303   
N16      N      0.553250000000     0.684400000000     0.677910000000    -0.194819   
N17      N      0.433060000000     0.933250000000     0.928290000000    -0.193848   
N18      N      0.550110000000     0.048240000000     0.045810000000    -0.195595   
N19      N      0.052280000000     0.678750000000     0.180220000000    -0.193804   
N20      N      0.934680000000     0.793960000000     0.296690000000    -0.195318   
N21      N      0.185240000000     0.681650000000     0.044410000000    -0.194932   
N22      N      0.301310000000     0.798850000000     0.928170000000    -0.194374   
N23      N      0.186090000000     0.547220000000     0.180820000000    -0.195454   
N24      N      0.300380000000     0.429190000000     0.297460000000    -0.194327   
N25      N      0.930830000000     0.301560000000     0.792800000000    -0.194492   
N26      N      0.049070000000     0.185360000000     0.677840000000    -0.194766   
N27      N      0.684310000000     0.183040000000     0.048310000000    -0.193632   
N28      N      0.801140000000     0.302590000000     0.935630000000    -0.195234   
N29      N      0.804840000000     0.432520000000     0.792970000000    -0.194382   
N30      N      0.688050000000     0.549690000000     0.677960000000    -0.194531   
N31      N      0.933240000000     0.428810000000     0.935540000000    -0.193772   
N32      N      0.052670000000     0.546240000000     0.047580000000    -0.194076   
O1       O      0.809890000000     0.350740000000     0.892140000000    -0.504385   
O2       O      0.858960000000     0.319630000000     0.909030000000    -0.504063   
O3       O      0.851010000000     0.423380000000     0.838690000000    -0.498624   
O4       O      0.875620000000     0.413950000000     0.907200000000    -0.497489   
O5       O      0.880150000000     0.310650000000     0.833600000000    -0.502185   
O6       O      0.923460000000     0.379150000000     0.893970000000    -0.497685   
O7       O      0.822420000000     0.374410000000     0.817960000000    -0.501094   
O8       O      0.916230000000     0.358030000000     0.822890000000    -0.499825   
O9       O      0.148620000000     0.670560000000     0.097570000000    -0.501454   
O10      O      0.156100000000     0.624650000000     0.059500000000    -0.501112   
O11      O      0.061970000000     0.635550000000     0.132040000000    -0.497765   
O12      O      0.074730000000     0.604930000000     0.067330000000    -0.493683   
O13      O      0.177110000000     0.586090000000     0.128970000000    -0.506238   
O14      O      0.099350000000     0.555890000000     0.092700000000    -0.504066   
O15      O      0.111170000000     0.656820000000     0.160200000000    -0.494302   
O16      O      0.129130000000     0.575930000000     0.164250000000    -0.502564   
O17      O      0.385160000000     0.889050000000     0.918440000000    -0.500403   
O18      O      0.414440000000     0.909900000000     0.870140000000    -0.491109   
O19      O      0.379880000000     0.833700000000     0.805810000000    -0.50426    
O20      O      0.352900000000     0.809120000000     0.888640000000    -0.504292   
O21      O      0.353010000000     0.922430000000     0.832060000000    -0.498701   
O22      O      0.316660000000     0.856220000000     0.900180000000    -0.495924   
O23      O      0.421920000000     0.831970000000     0.848920000000    -0.501238   
O24      O      0.314500000000     0.876520000000     0.824100000000    -0.495516   
O25      O      0.634290000000     0.172090000000     0.089460000000    -0.494375   
O26      O      0.666990000000     0.124350000000     0.072130000000    -0.492394   
O27      O      0.574380000000     0.161360000000     0.123420000000    -0.485926   
O28      O      0.560760000000     0.085790000000     0.098290000000    -0.504087   
O29      O      0.671490000000     0.105210000000     0.149020000000    -0.502269   
O30      O      0.607470000000     0.076840000000     0.061330000000    -0.503286   
O31      O      0.597620000000     0.133500000000     0.171580000000    -0.500994   
O32      O      0.631140000000     0.060090000000     0.146980000000    -0.505508   
O33      O      0.397580000000     0.308950000000     0.347970000000    -0.501724   
O34      O      0.416520000000     0.357730000000     0.317960000000    -0.499001   
O35      O      0.346670000000     0.348430000000     0.420710000000    -0.504025   
O36      O      0.419170000000     0.374950000000     0.406980000000    -0.502581   
O37      O      0.347990000000     0.384640000000     0.306530000000    -0.500131   
O38      O      0.394850000000     0.424080000000     0.381840000000    -0.50382    
O39      O      0.324680000000     0.321440000000     0.371640000000    -0.501259   
O40      O      0.322940000000     0.409110000000     0.355470000000    -0.499998   
O41      O      0.679540000000     0.632800000000     0.586640000000    -0.505214   
O42      O      0.631870000000     0.666650000000     0.570900000000    -0.497706   
O43      O      0.582130000000     0.566770000000     0.601950000000    -0.494757   
O44      O      0.658280000000     0.564990000000     0.621770000000    -0.497252   
O45      O      0.611480000000     0.668010000000     0.651680000000    -0.49899    
O46      O      0.650320000000     0.602690000000     0.667960000000    -0.502613   
O47      O      0.594770000000     0.602490000000     0.555170000000    -0.501804   
O48      O      0.563640000000     0.633630000000     0.637800000000    -0.50455    
O49      O      0.922980000000     0.904150000000     0.371970000000    -0.501875   
O50      O      0.879780000000     0.902560000000     0.414060000000    -0.500362   
O51      O      0.862190000000     0.910040000000     0.314600000000    -0.499335   
O52      O      0.921200000000     0.825320000000     0.352420000000    -0.504616   
O53      O      0.861540000000     0.830090000000     0.414000000000    -0.495878   
O54      O      0.883280000000     0.833990000000     0.306510000000    -0.504451   
O55      O      0.814530000000     0.896130000000     0.349110000000    -0.495701   
O56      O      0.819650000000     0.827330000000     0.370570000000    -0.494839   
O57      O      0.108410000000     0.073770000000     0.566680000000    -0.493467   
O58      O      0.058970000000     0.097310000000     0.592590000000    -0.502327   
O59      O      0.155960000000     0.108810000000     0.663580000000    -0.495724   
O60      O      0.173840000000     0.148450000000     0.598350000000    -0.50451    
O61      O      0.089620000000     0.175390000000     0.627340000000    -0.505904   
O62      O      0.128200000000     0.154040000000     0.559340000000    -0.503147   
O63      O      0.143770000000     0.061460000000     0.628390000000    -0.498384   
O64      O      0.077440000000     0.128020000000     0.662600000000    -0.498576   


