data_structure

_audit_creation_method RASPA-1.0
_audit_creation_date 2023-5-23
_audit_author_name 'Poobodin Mano'

_cell_length_a    33.6234
_cell_length_b    33.5911
_cell_length_c    36.0912
_cell_angle_alpha 89.9949
_cell_angle_beta  89.7246
_cell_angle_gamma 119.999
_cell_volume      35301.7

_symmetry_cell_setting          triclinic
_symmetry_space_group_name_Hall 'P 1'
_symmetry_space_group_name_H-M  'P 1'
_symmetry_Int_Tables_number     1

_symmetry_equiv_pos_as_xyz 'x,y,z'

loop_
_atom_site_label
_atom_site_type_symbol
_atom_site_fract_x
_atom_site_fract_y
_atom_site_fract_z
_atom_site_charge
C1       C      0.720760000000     0.578290000000     0.236480000000     0.413855   
C2       C      0.847840000000     0.578490000000     0.292140000000     0.414271   
C3       C      0.710120000000     0.484990000000     0.323410000000     0.40903    
C4       C      0.765420000000     0.485150000000     0.205440000000     0.409169   
C5       C      0.565460000000     0.858480000000     0.069510000000     0.413945   
C6       C      0.565870000000     0.731490000000     0.125320000000     0.414159   
C7       C      0.472240000000     0.775610000000     0.156560000000     0.409022   
C8       C      0.472570000000     0.720640000000     0.038710000000     0.408975   
C9       C      0.846640000000     0.295260000000     0.902890000000     0.413904   
C10      C      0.719400000000     0.167800000000     0.958900000000     0.413978   
C11      C      0.763920000000     0.305540000000     0.989940000000     0.409162   
C12      C      0.709020000000     0.250510000000     0.872070000000     0.409287   
C13      C      0.156290000000     0.450050000000     0.792740000000     0.413813   
C14      C      0.283530000000     0.449860000000     0.736720000000     0.414047   
C15      C      0.239070000000     0.543060000000     0.705670000000     0.408944   
C16      C      0.293900000000     0.542870000000     0.823590000000     0.409072   
C17      C      0.437520000000     0.294670000000     0.626170000000     0.413861   
C18      C      0.437170000000     0.167310000000     0.570360000000     0.414089   
C19      C      0.530790000000     0.305120000000     0.539150000000     0.409149   
C20      C      0.530420000000     0.249790000000     0.657010000000     0.408986   
C21      C      0.282380000000     0.859130000000     0.459100000000     0.414173   
C22      C      0.155310000000     0.732220000000     0.403480000000     0.414198   
C23      C      0.293050000000     0.776400000000     0.372230000000     0.409016   
C24      C      0.237690000000     0.721250000000     0.490160000000     0.409107   
C25      C      0.298790000000     0.961880000000     0.507700000000    -0.0862625  
C26      C      0.346670000000     0.990080000000     0.506000000000     0.0356751  
C27      C      0.372250000000     0.973540000000     0.487530000000    -0.0864907  
C28      C      0.350120000000     0.929750000000     0.471830000000     0.0732288  
C29      C      0.277750000000     0.918300000000     0.491510000000     0.0738424  
C30      C      0.369920000000     0.036360000000     0.523500000000     0.0356902  
C31      C      0.350330000000     0.064660000000     0.522360000000    -0.0862671  
C32      C      0.373070000000     0.108240000000     0.538530000000     0.073868   
C33      C      0.434040000000     0.096590000000     0.557100000000     0.0732346  
C34      C      0.412180000000     0.052790000000     0.541410000000    -0.0865018  
C35      C      0.351070000000     0.311300000000     0.674640000000    -0.0863043  
C36      C      0.370690000000     0.359190000000     0.672770000000     0.0357395  
C37      C      0.412850000000     0.384720000000     0.654290000000    -0.0864961  
C38      C      0.434590000000     0.362510000000     0.638710000000     0.0732368  
C39      C      0.373680000000     0.290180000000     0.658570000000     0.0738817  
C40      C      0.347560000000     0.382530000000     0.690120000000     0.0356317  
C41      C      0.299670000000     0.362780000000     0.689000000000    -0.0862441  
C42      C      0.278730000000     0.385560000000     0.705060000000     0.073872   
C43      C      0.351220000000     0.446930000000     0.723430000000     0.0732127  
C44      C      0.373250000000     0.425020000000     0.707850000000    -0.0863997  
C45      C      0.221810000000     0.570570000000     0.611140000000    -0.086353   
C46      C      0.235680000000     0.617320000000     0.614280000000     0.0357119  
C47      C      0.250280000000     0.638420000000     0.648910000000    -0.086265   
C48      C      0.251020000000     0.612980000000     0.679250000000     0.0737331  
C49      C      0.222980000000     0.546180000000     0.642060000000     0.0732071  
C50      C      0.235400000000     0.644070000000     0.581540000000     0.0357049  
C51      C      0.249510000000     0.637360000000     0.546640000000    -0.0863028  
C52      C      0.249800000000     0.663320000000     0.516310000000     0.0737671  
C53      C      0.222230000000     0.702260000000     0.554010000000     0.073147   
C54      C      0.221510000000     0.676910000000     0.584940000000    -0.0863277  
C55      C      0.041620000000     0.425370000000     0.821150000000    -0.0864332  
C56      C      0.024740000000     0.382930000000     0.839190000000     0.0356429  
C57      C      0.052870000000     0.363170000000     0.840680000000    -0.0861858  
C58      C      0.096670000000     0.385890000000     0.824680000000     0.0738016  
C59      C      0.085630000000     0.447220000000     0.805640000000     0.0732492  
C60      C      0.978190000000     0.359660000000     0.856450000000     0.0356935  
C61      C      0.961400000000     0.385240000000     0.874550000000    -0.0864472  
C62      C      0.917380000000     0.363080000000     0.890050000000     0.0732479  
C63      C      0.906170000000     0.290680000000     0.870890000000     0.0738578  
C64      C      0.949970000000     0.311760000000     0.854880000000    -0.0862735  
C65      C      0.625140000000     0.261870000000     0.815610000000    -0.0862063  
C66      C      0.631750000000     0.247380000000     0.780870000000     0.0356801  
C67      C      0.664580000000     0.233490000000     0.777570000000    -0.0863118  
C68      C      0.690010000000     0.234560000000     0.808430000000     0.0731501  
C69      C      0.651160000000     0.262500000000     0.845880000000     0.0736528  
C70      C      0.604890000000     0.247230000000     0.748200000000     0.0356719  
C71      C      0.558190000000     0.233390000000     0.751650000000    -0.0863034  
C72      C      0.533710000000     0.234220000000     0.720780000000     0.0730653  
C73      C      0.600310000000     0.261800000000     0.683040000000     0.0737293  
C74      C      0.625820000000     0.261410000000     0.713310000000    -0.0862665  
C75      C      0.376660000000     0.764300000000     0.213300000000    -0.086327   
C76      C      0.397490000000     0.778670000000     0.248020000000     0.035699   
C77      C      0.444150000000     0.792450000000     0.251220000000    -0.0862906  
C78      C      0.468720000000     0.791400000000     0.220270000000     0.073112   
C79      C      0.402260000000     0.763680000000     0.182950000000     0.0738405  
C80      C      0.370570000000     0.778820000000     0.280770000000     0.035702   
C81      C      0.337870000000     0.792860000000     0.277490000000    -0.0863387  
C82      C      0.312380000000     0.792060000000     0.308440000000     0.0731918  
C83      C      0.350890000000     0.764100000000     0.345940000000     0.0737368  
C84      C      0.376980000000     0.764470000000     0.315580000000    -0.0862904  
C85      C      0.703270000000     0.064560000000     0.006640000000    -0.0863139  
C86      C      0.655380000000     0.036370000000     0.005510000000     0.0357205  
C87      C      0.629680000000     0.053130000000     0.987760000000    -0.0864917  
C88      C      0.651710000000     0.097100000000     0.972170000000     0.073192   
C89      C      0.724200000000     0.108320000000     0.990580000000     0.0739136  
C90      C      0.632260000000     0.989890000000     0.022860000000     0.0356425  
C91      C      0.651890000000     0.961640000000     0.021020000000    -0.0862427  
C92      C      0.629290000000     0.917890000000     0.037110000000     0.0738544  
C93      C      0.568350000000     0.929230000000     0.056920000000     0.0732324  
C94      C      0.590080000000     0.973200000000     0.041340000000    -0.0864315  
C95      C      0.377740000000     0.638110000000     0.880120000000    -0.0862552  
C96      C      0.371190000000     0.616930000000     0.914830000000     0.0356927  
C97      C      0.338400000000     0.570160000000     0.918080000000    -0.0863373  
C98      C      0.312960000000     0.545830000000     0.887210000000     0.0731305  
C99      C      0.351710000000     0.612740000000     0.849840000000     0.0737238  
C100     C      0.398070000000     0.643620000000     0.947500000000     0.0356631  
C101     C      0.444750000000     0.676560000000     0.944040000000    -0.0862797  
C102     C      0.469240000000     0.701860000000     0.974910000000     0.0730357  
C103     C      0.402690000000     0.662670000000     0.012680000000     0.073769   
C104     C      0.377160000000     0.636770000000     0.982410000000    -0.0862965  
C105     C      0.626200000000     0.389120000000     0.380140000000    -0.0862785  
C106     C      0.632550000000     0.409970000000     0.414910000000     0.0356895  
C107     C      0.665210000000     0.456750000000     0.418140000000    -0.0863151  
C108     C      0.690720000000     0.481420000000     0.387180000000     0.0731308  
C109     C      0.652310000000     0.414820000000     0.349770000000     0.0737667  
C110     C      0.605590000000     0.382920000000     0.447670000000     0.0357193  
C111     C      0.558950000000     0.349960000000     0.444460000000    -0.0863315  
C112     C      0.534360000000     0.324360000000     0.475410000000     0.0731334  
C113     C      0.600770000000     0.363260000000     0.512770000000     0.0738129  
C114     C      0.626390000000     0.389470000000     0.482410000000    -0.0863114  
C115     C      0.041000000000     0.642630000000     0.374830000000    -0.0864875  
C116     C      0.024650000000     0.668420000000     0.356580000000     0.0356494  
C117     C      0.052940000000     0.716340000000     0.355120000000    -0.0862676  
C118     C      0.096410000000     0.737210000000     0.371310000000     0.0738294  
C119     C      0.084680000000     0.664600000000     0.390540000000     0.073227   
C120     C      0.978500000000     0.645340000000     0.339040000000     0.0356719  
C121     C      0.962070000000     0.603130000000     0.320880000000    -0.0864842  
C122     C      0.918380000000     0.581410000000     0.305170000000     0.0731753  
C123     C      0.906830000000     0.642450000000     0.324210000000     0.0738727  
C124     C      0.950300000000     0.665050000000     0.340410000000    -0.086287   
C125     C      0.704310000000     0.664610000000     0.187920000000    -0.0862209  
C126     C      0.656430000000     0.644870000000     0.189600000000     0.035605   
C127     C      0.630860000000     0.602690000000     0.208050000000    -0.0863974  
C128     C      0.653000000000     0.581060000000     0.223740000000     0.0731781  
C129     C      0.725370000000     0.642100000000     0.204100000000     0.0738227  
C130     C      0.633170000000     0.667870000000     0.172110000000     0.0357179  
C131     C      0.652740000000     0.715780000000     0.173280000000    -0.0862996  
C132     C      0.629980000000     0.736590000000     0.157140000000     0.0738808  
C133     C      0.569030000000     0.663910000000     0.138530000000     0.073178   
C134     C      0.590920000000     0.642010000000     0.154210000000    -0.0864541  
C135     C      0.752930000000     0.389830000000     0.046660000000    -0.0862749  
C136     C      0.767370000000     0.383220000000     0.081330000000     0.035704   
C137     C      0.781070000000     0.350230000000     0.084500000000    -0.0863376  
C138     C      0.779870000000     0.324650000000     0.053580000000     0.0731709  
C139     C      0.752170000000     0.363650000000     0.016330000000     0.0737915  
C140     C      0.767660000000     0.410250000000     0.114060000000     0.0356947  
C141     C      0.781720000000     0.457030000000     0.110690000000    -0.0863001  
C142     C      0.781020000000     0.481670000000     0.141620000000     0.0730655  
C143     C      0.753120000000     0.415040000000     0.179270000000     0.0737768  
C144     C      0.753390000000     0.389380000000     0.148940000000    -0.0862825  
H1       H      0.409210000000     0.994380000000     0.484890000000     0.0532081  
H2       H      0.371190000000     0.918200000000     0.457910000000     0.0300377  
H3       H      0.240690000000     0.897370000000     0.493660000000     0.0313489  
H4       H      0.277640000000     0.972960000000     0.522020000000     0.0534355  
H5       H      0.318000000000     0.053670000000     0.508480000000     0.0534295  
H6       H      0.357000000000     0.129260000000     0.536800000000     0.0313616  
H7       H      0.466750000000     0.108050000000     0.570580000000     0.0299983  
H8       H      0.428240000000     0.031860000000     0.543620000000     0.0532097  
H9       H      0.428930000000     0.421690000000     0.651520000000     0.0532022  
H10      H      0.467230000000     0.383540000000     0.624760000000     0.0300511  
H11      H      0.357590000000     0.253100000000     0.660840000000     0.0313692  
H12      H      0.318820000000     0.290200000000     0.689000000000     0.0534426  
H13      H      0.278430000000     0.330270000000     0.675240000000     0.0534302  
H14      H      0.241660000000     0.369350000000     0.703380000000     0.0313899  
H15      H      0.372380000000     0.479810000000     0.736790000000     0.0300174  
H16      H      0.410240000000     0.441220000000     0.710040000000     0.0531478  
H17      H      0.261870000000     0.674600000000     0.652520000000     0.0535704  
H18      H      0.262810000000     0.630630000000     0.705520000000     0.032414   
H19      H      0.211990000000     0.510080000000     0.638510000000     0.0304968  
H20      H      0.209680000000     0.552720000000     0.585030000000     0.0534506  
H21      H      0.261080000000     0.612780000000     0.542810000000     0.0535744  
H22      H      0.261260000000     0.657340000000     0.489830000000     0.0324449  
H23      H      0.211280000000     0.727380000000     0.557770000000     0.0304925  
H24      H      0.209740000000     0.682790000000     0.611270000000     0.0534417  
H25      H      0.041540000000     0.330700000000     0.854700000000     0.0533995  
H26      H      0.117520000000     0.369670000000     0.826650000000     0.0314107  
H27      H      0.097420000000     0.480060000000     0.792030000000     0.0300466  
H28      H      0.020850000000     0.441580000000     0.818670000000     0.0531641  
H29      H      0.982240000000     0.422230000000     0.877070000000     0.0531651  
H30      H      0.905660000000     0.384150000000     0.903710000000     0.0300433  
H31      H      0.885250000000     0.253600000000     0.868870000000     0.0314003  
H32      H      0.961230000000     0.290610000000     0.840830000000     0.0534495  
H33      H      0.670390000000     0.221430000000     0.751380000000     0.0534271  
H34      H      0.715100000000     0.223570000000     0.804750000000     0.030494   
H35      H      0.645240000000     0.274220000000     0.872230000000     0.0324093  
H36      H      0.600570000000     0.273470000000     0.819350000000     0.0535301  
H37      H      0.540460000000     0.221560000000     0.777960000000     0.0534466  
H38      H      0.497670000000     0.223300000000     0.724580000000     0.0305107  
H39      H      0.617830000000     0.273310000000     0.656570000000     0.03242    
H40      H      0.661950000000     0.272950000000     0.709450000000     0.0535561  
H41      H      0.461810000000     0.804410000000     0.277390000000     0.0534419  
H42      H      0.504740000000     0.802300000000     0.223870000000     0.030514   
H43      H      0.384820000000     0.752050000000     0.156620000000     0.0323992  
H44      H      0.340560000000     0.752800000000     0.209650000000     0.0535914  
H45      H      0.332220000000     0.804820000000     0.251240000000     0.0534531  
H46      H      0.287390000000     0.803150000000     0.304770000000     0.0304856  
H47      H      0.356650000000     0.752460000000     0.372350000000     0.0324545  
H48      H      0.401430000000     0.752770000000     0.319310000000     0.0535792  
H49      H      0.592710000000     0.032310000000     0.985560000000     0.0531964  
H50      H      0.630560000000     0.108800000000     0.958800000000     0.0300185  
H51      H      0.761280000000     0.129220000000     0.992270000000     0.0313822  
H52      H      0.724500000000     0.053330000000     0.020420000000     0.0534834  
H53      H      0.684150000000     0.972830000000     0.006680000000     0.0534375  
H54      H      0.645400000000     0.896940000000     0.034860000000     0.0313813  
H55      H      0.535710000000     0.917590000000     0.070870000000     0.0300573  
H56      H      0.573990000000     0.994070000000     0.044090000000     0.0531893  
H57      H      0.332630000000     0.552240000000     0.944240000000     0.0534421  
H58      H      0.287900000000     0.509710000000     0.890860000000     0.0304889  
H59      H      0.357590000000     0.630440000000     0.823510000000     0.0324131  
H60      H      0.402280000000     0.674310000000     0.876410000000     0.0535551  
H61      H      0.462470000000     0.682550000000     0.917710000000     0.0534224  
H62      H      0.505280000000     0.727050000000     0.971100000000     0.030521   
H63      H      0.385190000000     0.656570000000     0.039170000000     0.0324155  
H64      H      0.341040000000     0.612110000000     0.986280000000     0.0535566  
H65      H      0.670810000000     0.474410000000     0.444360000000     0.053447   
H66      H      0.715680000000     0.517530000000     0.390810000000     0.0304939  
H67      H      0.646590000000     0.397360000000     0.323400000000     0.0324583  
H68      H      0.601770000000     0.352930000000     0.376450000000     0.053575   
H69      H      0.541320000000     0.344200000000     0.418270000000     0.0534534  
H70      H      0.498350000000     0.299180000000     0.471800000000     0.030515   
H71      H      0.618180000000     0.369150000000     0.539130000000     0.0324138  
H72      H      0.662480000000     0.414140000000     0.486080000000     0.0535808  
H73      H      0.042010000000     0.737640000000     0.340970000000     0.0534383  
H74      H      0.117420000000     0.774310000000     0.369340000000     0.031344   
H75      H      0.096080000000     0.643370000000     0.404280000000     0.0300193  
H76      H      0.020070000000     0.605630000000     0.377280000000     0.0532021  
H77      H      0.982920000000     0.586990000000     0.318500000000     0.0532094  
H78      H      0.906920000000     0.548730000000     0.291500000000     0.0300213  
H79      H      0.885890000000     0.658600000000     0.326120000000     0.0313286  
H80      H      0.961300000000     0.697350000000     0.354480000000     0.0534419  
H81      H      0.593890000000     0.586530000000     0.210690000000     0.0531689  
H82      H      0.631940000000     0.548410000000     0.237650000000     0.0300531  
H83      H      0.762430000000     0.658280000000     0.201950000000     0.0313426  
H84      H      0.725460000000     0.696870000000     0.173610000000     0.0534241  
H85      H      0.685060000000     0.737140000000     0.187170000000     0.0534471  
H86      H      0.646040000000     0.773690000000     0.158880000000     0.0313554  
H87      H      0.536320000000     0.642640000000     0.125050000000     0.0300201  
H88      H      0.574870000000     0.605000000000     0.151980000000     0.0531827  
H89      H      0.793070000000     0.344410000000     0.110630000000     0.0534556  
H90      H      0.790720000000     0.299450000000     0.057160000000     0.0305084  
H91      H      0.740500000000     0.369580000000     0.990040000000     0.0323762  
H92      H      0.741480000000     0.414520000000     0.043030000000     0.0535737  
H93      H      0.793620000000     0.474730000000     0.084390000000     0.0534446  
H94      H      0.792110000000     0.517780000000     0.137890000000     0.0305068  
H95      H      0.741530000000     0.397560000000     0.205730000000     0.0324604  
H96      H      0.741680000000     0.353180000000     0.152740000000     0.0535642  
In1      In     0.761660000000     0.532900000000     0.264360000000     2.40644    
In2      In     0.520120000000     0.772030000000     0.097500000000     2.40663    
In3      In     0.760220000000     0.254240000000     0.930930000000     2.40726    
In4      In     0.242710000000     0.495430000000     0.764700000000     2.40708    
In5      In     0.482890000000     0.253610000000     0.598210000000     2.40661    
In6      In     0.241490000000     0.772810000000     0.431250000000     2.40623    
N1       N      0.303310000000     0.902340000000     0.473980000000    -0.194798   
N2       N      0.414710000000     0.124100000000     0.555500000000    -0.194801   
N3       N      0.415220000000     0.315680000000     0.641000000000    -0.194799   
N4       N      0.304390000000     0.427410000000     0.721890000000    -0.194776   
N5       N      0.237610000000     0.567310000000     0.675750000000    -0.193428   
N6       N      0.236450000000     0.695600000000     0.520060000000    -0.193487   
N7       N      0.112930000000     0.427690000000     0.807540000000    -0.194734   
N8       N      0.890000000000     0.316240000000     0.888090000000    -0.194761   
N9       N      0.683410000000     0.249100000000     0.842220000000    -0.193485   
N10      N      0.554710000000     0.248490000000     0.686840000000    -0.193449   
N11      N      0.447830000000     0.776980000000     0.186500000000    -0.19341    
N12      N      0.318770000000     0.777630000000     0.342300000000    -0.193471   
N13      N      0.698540000000     0.124470000000     0.973740000000    -0.194761   
N14      N      0.587740000000     0.901800000000     0.054670000000    -0.194816   
N15      N      0.319510000000     0.567050000000     0.853450000000    -0.193477   
N16      N      0.448270000000     0.695050000000     0.008870000000    -0.193409   
N17      N      0.684390000000     0.460510000000     0.353360000000    -0.193405   
N18      N      0.555210000000     0.330900000000     0.509210000000    -0.19345    
N19      N      0.112190000000     0.711450000000     0.388610000000    -0.194802   
N20      N      0.890960000000     0.600840000000     0.307000000000    -0.194841   
N21      N      0.699820000000     0.600540000000     0.221610000000    -0.194779   
N22      N      0.588340000000     0.710770000000     0.140160000000    -0.194849   
N23      N      0.765390000000     0.331260000000     0.019860000000    -0.193416   
N24      N      0.766640000000     0.460730000000     0.175550000000    -0.193494   
O1       O      0.776980000000     0.527130000000     0.203480000000    -0.503039   
O2       O      0.752300000000     0.467450000000     0.237210000000    -0.488159   
O3       O      0.821260000000     0.594880000000     0.292660000000    -0.495239   
O4       O      0.763730000000     0.594740000000     0.235730000000    -0.494887   
O5       O      0.705710000000     0.467330000000     0.291720000000    -0.488052   
O6       O      0.698600000000     0.539190000000     0.251550000000    -0.50975    
O7       O      0.831040000000     0.539360000000     0.277340000000    -0.509982   
O8       O      0.740430000000     0.526990000000     0.325240000000    -0.50292    
O9       O      0.514440000000     0.751250000000     0.036640000000    -0.503118   
O10      O      0.454860000000     0.715810000000     0.070520000000    -0.488308   
O11      O      0.582180000000     0.774480000000     0.125620000000    -0.495186   
O12      O      0.581890000000     0.831920000000     0.068730000000    -0.494824   
O13      O      0.454630000000     0.762560000000     0.124890000000    -0.488089   
O14      O      0.526380000000     0.841480000000     0.084630000000    -0.509726   
O15      O      0.526710000000     0.709100000000     0.110730000000    -0.50976    
O16      O      0.514150000000     0.787070000000     0.158360000000    -0.503098   
O17      O      0.739460000000     0.239020000000     0.870150000000    -0.503452   
O18      O      0.704320000000     0.263650000000     0.903760000000    -0.488608   
O19      O      0.762380000000     0.194290000000     0.959070000000    -0.494991   
O20      O      0.820160000000     0.252250000000     0.902420000000    -0.494818   
O21      O      0.750840000000     0.310250000000     0.958310000000    -0.488324   
O22      O      0.829580000000     0.317420000000     0.917700000000    -0.509857   
O23      O      0.697160000000     0.184860000000     0.944420000000    -0.509847   
O24      O      0.775320000000     0.275010000000     0.991730000000    -0.503409   
O25      O      0.263500000000     0.500880000000     0.825460000000    -0.503379   
O26      O      0.298560000000     0.560780000000     0.791930000000    -0.488371   
O27      O      0.240550000000     0.433320000000     0.736570000000    -0.495048   
O28      O      0.182700000000     0.433460000000     0.793150000000    -0.494917   
O29      O      0.252280000000     0.560890000000     0.737280000000    -0.48815    
O30      O      0.173420000000     0.489330000000     0.777990000000    -0.509742   
O31      O      0.305770000000     0.489190000000     0.751180000000    -0.509912   
O32      O      0.227500000000     0.501070000000     0.703910000000    -0.503165   
O33      O      0.488540000000     0.238440000000     0.659060000000    -0.50318    
O34      O      0.548160000000     0.262770000000     0.625210000000    -0.488326   
O35      O      0.420840000000     0.193960000000     0.570080000000    -0.495178   
O36      O      0.421110000000     0.251660000000     0.626970000000    -0.49476    
O37      O      0.548370000000     0.309740000000     0.570840000000    -0.488084   
O38      O      0.476590000000     0.316790000000     0.611050000000    -0.509616   
O39      O      0.476330000000     0.184120000000     0.584950000000    -0.509903   
O40      O      0.488900000000     0.274600000000     0.537330000000    -0.50305    
O41      O      0.226290000000     0.751780000000     0.492150000000    -0.502998   
O42      O      0.250680000000     0.716590000000     0.458370000000    -0.488053   
O43      O      0.172030000000     0.709880000000     0.418350000000    -0.509935   
O44      O      0.239410000000     0.832560000000     0.459870000000    -0.495065   
O45      O      0.297500000000     0.763270000000     0.403960000000    -0.487997   
O46      O      0.304540000000     0.842240000000     0.444030000000    -0.509944   
O47      O      0.181970000000     0.775210000000     0.402880000000    -0.495164   
O48      O      0.262690000000     0.788000000000     0.370350000000    -0.502802   


