data_structure

_audit_creation_method RASPA-1.0
_audit_creation_date 2023-6-5
_audit_author_name 'Poobodin Mano'

_cell_length_a    44.241
_cell_length_b    44.2331
_cell_length_c    23.3581
_cell_angle_alpha 89.6967
_cell_angle_beta  90.3034
_cell_angle_gamma 89.9995
_cell_volume      45708.6

_symmetry_cell_setting          triclinic
_symmetry_space_group_name_Hall 'P 1'
_symmetry_space_group_name_H-M  'P 1'
_symmetry_Int_Tables_number     1

_symmetry_equiv_pos_as_xyz 'x,y,z'

loop_
_atom_site_label
_atom_site_type_symbol
_atom_site_fract_x
_atom_site_fract_y
_atom_site_fract_z
_atom_site_charge
C1       C      0.317360000000     0.385710000000     0.011740000000     0.412391   
C2       C      0.303440000000     0.295890000000     0.907010000000     0.411861   
C3       C      0.385530000000     0.317150000000     0.987090000000     0.412114   
C4       C      0.295740000000     0.303730000000     0.092090000000     0.411693   
C5       C      0.320230000000     0.607570000000     0.006110000000     0.411927   
C6       C      0.299310000000     0.697730000000     0.091170000000     0.41325    
C7       C      0.386820000000     0.672760000000     0.001350000000     0.411738   
C8       C      0.296810000000     0.695430000000     0.914320000000     0.410564   
C9       C      0.607350000000     0.319080000000     0.992150000000     0.411782   
C10      C      0.697520000000     0.297940000000     0.907050000000     0.413093   
C11      C      0.672700000000     0.385540000000     0.996510000000     0.411223   
C12      C      0.695160000000     0.295530000000     0.083870000000     0.410454   
C13      C      0.674340000000     0.607910000000     0.001330000000     0.413845   
C14      C      0.695680000000     0.697600000000     0.908220000000     0.413022   
C15      C      0.609150000000     0.673400000000     0.995700000000     0.413582   
C16      C      0.698970000000     0.694470000000     0.088430000000     0.413279   
C17      C      0.819530000000     0.106850000000     0.501740000000     0.411857   
C18      C      0.798110000000     0.197260000000     0.585520000000     0.413097   
C19      C      0.885980000000     0.172200000000     0.497320000000     0.411415   
C20      C      0.796210000000     0.194410000000     0.408720000000     0.410304   
C21      C      0.886330000000     0.816630000000     0.486940000000     0.412307   
C22      C      0.796340000000     0.803140000000     0.590880000000     0.411931   
C23      C      0.817630000000     0.885030000000     0.510000000000     0.412479   
C24      C      0.804580000000     0.795070000000     0.405730000000     0.411848   
C25      C      0.108100000000     0.819470000000     0.496130000000     0.411943   
C26      C      0.198540000000     0.798310000000     0.412600000000     0.413213   
C27      C      0.173200000000     0.886130000000     0.500950000000     0.411386   
C28      C      0.195660000000     0.796390000000     0.589420000000     0.410449   
C29      C      0.108340000000     0.173680000000     0.495640000000     0.413616   
C30      C      0.197960000000     0.195150000000     0.589650000000     0.413161   
C31      C      0.173680000000     0.108530000000     0.503090000000     0.413678   
C32      C      0.194960000000     0.198270000000     0.409390000000     0.412957   
C33      C      0.175910000000     0.964650000000     0.451220000000    -0.0859636  
C34      C      0.176420000000     0.980450000000     0.503160000000     0.0356204  
C35      C      0.176430000000     0.963670000000     0.554290000000    -0.0860458  
C36      C      0.175380000000     0.932130000000     0.552720000000     0.0735034  
C37      C      0.175310000000     0.933070000000     0.451260000000     0.0733926  
C38      C      0.176440000000     0.014180000000     0.503990000000     0.035938   
C39      C      0.191440000000     0.030910000000     0.461590000000    -0.0860665  
C40      C      0.190370000000     0.062470000000     0.462050000000     0.0741048  
C41      C      0.160830000000     0.061610000000     0.546400000000     0.0744123  
C42      C      0.161070000000     0.030040000000     0.546810000000    -0.0863035  
C43      C      0.964790000000     0.833020000000     0.449780000000    -0.086485   
C44      C      0.980480000000     0.812840000000     0.485590000000     0.0357736  
C45      C      0.963740000000     0.792860000000     0.519770000000    -0.0861578  
C46      C      0.932170000000     0.793900000000     0.518640000000     0.0735422  
C47      C      0.933250000000     0.833420000000     0.449690000000     0.0738756  
C48      C      0.014080000000     0.813260000000     0.488190000000     0.0356989  
C49      C      0.031120000000     0.817840000000     0.438520000000    -0.0865322  
C50      C      0.062570000000     0.819640000000     0.442000000000     0.0737695  
C51      C      0.060960000000     0.811860000000     0.542460000000     0.073211   
C52      C      0.029430000000     0.810010000000     0.540560000000    -0.0860441  
C53      C      0.793570000000     0.962390000000     0.477370000000    -0.0861513  
C54      C      0.813410000000     0.979180000000     0.511730000000     0.035775   
C55      C      0.833600000000     0.963530000000     0.547590000000    -0.0864909  
C56      C      0.834140000000     0.931990000000     0.547540000000     0.0738509  
C57      C      0.794740000000     0.930820000000     0.478360000000     0.0735451  
C58      C      0.813680000000     0.012790000000     0.509280000000     0.035718   
C59      C      0.810460000000     0.028180000000     0.456950000000    -0.0860653  
C60      C      0.812170000000     0.059730000000     0.455190000000     0.0731996  
C61      C      0.819780000000     0.061260000000     0.555700000000     0.0737972  
C62      C      0.818110000000     0.029800000000     0.559050000000    -0.0865891  
C63      C      0.964450000000     0.175150000000     0.547230000000    -0.0859397  
C64      C      0.980270000000     0.175850000000     0.495320000000     0.0355981  
C65      C      0.963520000000     0.175900000000     0.444160000000    -0.0860082  
C66      C      0.931990000000     0.174690000000     0.445650000000     0.0734768  
C67      C      0.932880000000     0.174400000000     0.547120000000     0.0733548  
C68      C      0.013990000000     0.176030000000     0.494550000000     0.0359647  
C69      C      0.030630000000     0.191030000000     0.537090000000    -0.0861282  
C70      C      0.062190000000     0.190100000000     0.536680000000     0.0741801  
C71      C      0.061510000000     0.160720000000     0.452130000000     0.0743841  
C72      C      0.029940000000     0.160810000000     0.451660000000    -0.0863415  
C73      C      0.707930000000     0.751880000000     0.791810000000    -0.0862303  
C74      C      0.737260000000     0.744340000000     0.774490000000     0.0356539  
C75      C      0.752030000000     0.720400000000     0.802530000000    -0.0863477  
C76      C      0.737700000000     0.704920000000     0.846950000000     0.0734421  
C77      C      0.694210000000     0.735820000000     0.836320000000     0.0731388  
C78      C      0.752400000000     0.761140000000     0.727340000000     0.0357466  
C79      C      0.736210000000     0.770490000000     0.678610000000    -0.0862117  
C80      C      0.751150000000     0.785140000000     0.633800000000     0.0734883  
C81      C      0.797630000000     0.782090000000     0.684520000000     0.0737968  
C82      C      0.783410000000     0.767520000000     0.730170000000    -0.0863475  
C83      C      0.721940000000     0.750830000000     0.193970000000    -0.0864634  
C84      C      0.745860000000     0.736010000000     0.222000000000     0.0357308  
C85      C      0.753340000000     0.706660000000     0.204690000000    -0.0863451  
C86      C      0.737230000000     0.692960000000     0.160220000000     0.0732701  
C87      C      0.706420000000     0.736510000000     0.149600000000     0.0735277  
C88      C      0.762680000000     0.751140000000     0.269140000000     0.035716   
C89      C      0.769100000000     0.782140000000     0.266310000000    -0.0863495  
C90      C      0.783640000000     0.796350000000     0.311990000000     0.0737777  
C91      C      0.786620000000     0.749870000000     0.362730000000     0.0734786  
C92      C      0.771990000000     0.734940000000     0.317890000000    -0.0861322  
C93      C      0.749920000000     0.210700000000     0.709350000000    -0.086445   
C94      C      0.756450000000     0.240970000000     0.721960000000     0.0358286  
C95      C      0.777620000000     0.256190000000     0.687820000000    -0.0859941  
C96      C      0.791520000000     0.241200000000     0.642420000000     0.0735111  
C97      C      0.763980000000     0.196560000000     0.663400000000     0.0741981  
C98      C      0.741010000000     0.256440000000     0.770170000000     0.0357878  
C99      C      0.710730000000     0.249990000000     0.782770000000    -0.0863782  
C100     C      0.696650000000     0.264010000000     0.828830000000     0.074145   
C101     C      0.741370000000     0.291400000000     0.849900000000     0.0734409  
C102     C      0.756290000000     0.277530000000     0.804390000000    -0.0859382  
C103     C      0.716110000000     0.236600000000     0.187450000000    -0.0858779  
C104     C      0.737270000000     0.251850000000     0.221690000000     0.0357002  
C105     C      0.743660000000     0.282160000000     0.208690000000    -0.0862201  
C106     C      0.729420000000     0.296330000000     0.162340000000     0.0738627  
C107     C      0.702080000000     0.251580000000     0.141620000000     0.0732796  
C108     C      0.752750000000     0.236340000000     0.270470000000     0.0357499  
C109     C      0.737440000000     0.215250000000     0.304760000000    -0.0859035  
C110     C      0.752360000000     0.201250000000     0.350690000000     0.0732844  
C111     C      0.797160000000     0.228490000000     0.329960000000     0.0738791  
C112     C      0.783060000000     0.242690000000     0.283510000000    -0.0863126  
C113     C      0.675550000000     0.464210000000     0.947630000000    -0.0858508  
C114     C      0.676440000000     0.479840000000     0.999760000000     0.0352639  
C115     C      0.676640000000     0.462880000000     0.050690000000    -0.0858081  
C116     C      0.675410000000     0.431360000000     0.048770000000     0.0734666  
C117     C      0.674760000000     0.432640000000     0.947310000000     0.0733088  
C118     C      0.676640000000     0.513550000000     0.001000000000     0.0362478  
C119     C      0.691530000000     0.530360000000     0.958560000000    -0.0862933  
C120     C      0.690640000000     0.561920000000     0.959460000000     0.0740974  
C121     C      0.661480000000     0.560900000000     0.044280000000     0.0744524  
C122     C      0.661550000000     0.529330000000     0.044280000000    -0.0864364  
C123     C      0.243950000000     0.783320000000     0.714630000000    -0.0862355  
C124     C      0.237620000000     0.753000000000     0.727710000000     0.0357168  
C125     C      0.216540000000     0.737670000000     0.693450000000    -0.0859067  
C126     C      0.202530000000     0.752570000000     0.647500000000     0.0733735  
C127     C      0.229740000000     0.797400000000     0.668150000000     0.0738518  
C128     C      0.253130000000     0.737540000000     0.776520000000     0.0356956  
C129     C      0.283430000000     0.743950000000     0.789540000000    -0.0861736  
C130     C      0.297600000000     0.729720000000     0.835880000000     0.0738193  
C131     C      0.252870000000     0.702360000000     0.856600000000     0.0733186  
C132     C      0.237890000000     0.716390000000     0.810770000000    -0.0858726  
C133     C      0.278900000000     0.756530000000     0.193800000000    -0.0860237  
C134     C      0.257830000000     0.741230000000     0.228060000000     0.0358274  
C135     C      0.251430000000     0.710930000000     0.215530000000    -0.0864642  
C136     C      0.265450000000     0.696850000000     0.169470000000     0.0742352  
C137     C      0.292760000000     0.741600000000     0.148300000000     0.0735155  
C138     C      0.242330000000     0.756680000000     0.276230000000     0.0358425  
C139     C      0.257510000000     0.777900000000     0.310340000000    -0.0860125  
C140     C      0.242490000000     0.791790000000     0.355710000000     0.0734474  
C141     C      0.197910000000     0.764160000000     0.334740000000     0.074278   
C142     C      0.212080000000     0.750110000000     0.288820000000    -0.0864607  
C143     C      0.464110000000     0.676290000000     0.946860000000    -0.0859903  
C144     C      0.481110000000     0.676120000000     0.997730000000     0.0354915  
C145     C      0.465540000000     0.675420000000     0.049910000000    -0.0858257  
C146     C      0.433970000000     0.674770000000     0.050360000000     0.0733349  
C147     C      0.432590000000     0.675190000000     0.948900000000     0.0733331  
C148     C      0.514820000000     0.676150000000     0.996350000000     0.0358715  
C149     C      0.530480000000     0.660900000000     0.953130000000    -0.0863186  
C150     C      0.562040000000     0.660670000000     0.953020000000     0.0743825  
C151     C      0.563290000000     0.690000000000     0.037630000000     0.0741841  
C152     C      0.531740000000     0.691050000000     0.038630000000    -0.0860131  
C153     C      0.267340000000     0.283100000000     0.768100000000    -0.0863612  
C154     C      0.261340000000     0.252000000000     0.770580000000     0.0357477  
C155     C      0.271040000000     0.235730000000     0.818970000000    -0.0862553  
C156     C      0.285700000000     0.250670000000     0.863780000000     0.0735356  
C157     C      0.281930000000     0.297300000000     0.813730000000     0.0737589  
C158     C      0.244580000000     0.236820000000     0.723410000000     0.0356767  
C159     C      0.220370000000     0.251400000000     0.695840000000    -0.0863967  
C160     C      0.204940000000     0.237040000000     0.651390000000     0.0734422  
C161     C      0.236410000000     0.193910000000     0.661080000000     0.0731866  
C162     C      0.252440000000     0.207660000000     0.705600000000    -0.0862885  
C163     C      0.282910000000     0.267750000000     0.231090000000    -0.0863161  
C164     C      0.251820000000     0.261760000000     0.228600000000     0.035758   
C165     C      0.235560000000     0.271460000000     0.180210000000    -0.0861943  
C166     C      0.250500000000     0.286090000000     0.135370000000     0.0734508  
C167     C      0.297130000000     0.282310000000     0.185430000000     0.0737251  
C168     C      0.236640000000     0.244980000000     0.275760000000     0.0356836  
C169     C      0.251220000000     0.220760000000     0.303300000000    -0.0864044  
C170     C      0.236850000000     0.205300000000     0.347700000000     0.0735167  
C171     C      0.193730000000     0.236780000000     0.338070000000     0.073161   
C172     C      0.207480000000     0.252840000000     0.293580000000    -0.0862966  
C173     C      0.463020000000     0.293100000000     0.018490000000    -0.086033   
C174     C      0.479660000000     0.312980000000     0.983960000000     0.0356912  
C175     C      0.463860000000     0.333210000000     0.948410000000    -0.0864489  
C176     C      0.432320000000     0.333740000000     0.948920000000     0.0738019  
C177     C      0.431450000000     0.294270000000     0.017980000000     0.0736023  
C178     C      0.513270000000     0.313260000000     0.985920000000     0.0355926  
C179     C      0.528880000000     0.309920000000     0.037990000000    -0.0859597  
C180     C      0.560420000000     0.311630000000     0.039310000000     0.0733051  
C181     C      0.561550000000     0.319460000000     0.938840000000     0.0737079  
C182     C      0.530080000000     0.317800000000     0.935930000000    -0.0865119  
C183     C      0.293620000000     0.463310000000     0.980300000000    -0.0862314  
C184     C      0.313660000000     0.479880000000     0.014620000000     0.0358787  
C185     C      0.333900000000     0.464010000000     0.050030000000    -0.0865138  
C186     C      0.334270000000     0.432460000000     0.049610000000     0.0738806  
C187     C      0.294640000000     0.431730000000     0.980890000000     0.0734551  
C188     C      0.314080000000     0.513500000000     0.012570000000     0.0358112  
C189     C      0.310680000000     0.529090000000     0.960490000000    -0.086179   
C190     C      0.312500000000     0.560630000000     0.959100000000     0.073169   
C191     C      0.320600000000     0.561780000000     0.059500000000     0.0738096  
C192     C      0.318830000000     0.530320000000     0.062480000000    -0.0866006  
H1       H      0.177450000000     0.974720000000     0.595500000000     0.0532557  
H2       H      0.175250000000     0.920030000000     0.593220000000     0.0315554  
H3       H      0.174720000000     0.921730000000     0.410210000000     0.0306927  
H4       H      0.175370000000     0.976500000000     0.410560000000     0.0531753  
H5       H      0.204150000000     0.019800000000     0.428270000000     0.0534202  
H6       H      0.202100000000     0.074550000000     0.428300000000     0.0317262  
H7       H      0.148500000000     0.072970000000     0.580030000000     0.030257   
H8       H      0.148690000000     0.018240000000     0.579960000000     0.053103   
H9       H      0.974920000000     0.776530000000     0.547350000000     0.0536291  
H10      H      0.920010000000     0.778370000000     0.546230000000     0.0317836  
H11      H      0.921990000000     0.849760000000     0.422140000000     0.0304759  
H12      H      0.976750000000     0.849090000000     0.423070000000     0.0533934  
H13      H      0.020280000000     0.819980000000     0.397010000000     0.0534273  
H14      H      0.074890000000     0.823370000000     0.402580000000     0.0317465  
H15      H      0.072000000000     0.809580000000     0.583810000000     0.0305809  
H16      H      0.017170000000     0.806800000000     0.580140000000     0.0536074  
H17      H      0.849570000000     0.975530000000     0.574440000000     0.0533955  
H18      H      0.850480000000     0.920770000000     0.575130000000     0.0304662  
H19      H      0.779310000000     0.918620000000     0.450630000000     0.0317917  
H20      H      0.777230000000     0.973530000000     0.449750000000     0.0536225  
H21      H      0.807360000000     0.015960000000     0.417300000000     0.0536269  
H22      H      0.809910000000     0.070810000000     0.413870000000     0.0305762  
H23      H      0.823400000000     0.073560000000     0.595190000000     0.0317326  
H24      H      0.820230000000     0.018920000000     0.600520000000     0.0534425  
H25      H      0.974580000000     0.177050000000     0.402970000000     0.0532517  
H26      H      0.919920000000     0.174600000000     0.405130000000     0.0315798  
H27      H      0.921520000000     0.173680000000     0.588140000000     0.0306958  
H28      H      0.976280000000     0.174570000000     0.587910000000     0.0531603  
H29      H      0.019450000000     0.203620000000     0.570480000000     0.0534425  
H30      H      0.074200000000     0.201820000000     0.570550000000     0.0316938  
H31      H      0.072940000000     0.148500000000     0.418440000000     0.0302664  
H32      H      0.018230000000     0.148450000000     0.418390000000     0.0531383  
H33      H      0.774470000000     0.713370000000     0.789920000000     0.0537055  
H34      H      0.749940000000     0.686590000000     0.867600000000     0.0314082  
H35      H      0.671590000000     0.742460000000     0.848780000000     0.030468   
H36      H      0.695750000000     0.770390000000     0.771780000000     0.0532247  
H37      H      0.712280000000     0.765840000000     0.674310000000     0.0534712  
H38      H      0.737960000000     0.791580000000     0.596420000000     0.0303491  
H39      H      0.821710000000     0.786280000000     0.688140000000     0.0319519  
H40      H      0.796720000000     0.761310000000     0.767460000000     0.0534469  
H41      H      0.771830000000     0.694460000000     0.224710000000     0.0532821  
H42      H      0.743820000000     0.670320000000     0.147770000000     0.0304465  
H43      H      0.688100000000     0.748780000000     0.128970000000     0.0314272  
H44      H      0.714960000000     0.773280000000     0.206570000000     0.0537767  
H45      H      0.762920000000     0.795460000000     0.229010000000     0.0534566  
H46      H      0.787860000000     0.820440000000     0.308390000000     0.031983   
H47      H      0.793010000000     0.736670000000     0.400130000000     0.0303493  
H48      H      0.767310000000     0.711000000000     0.322190000000     0.0534246  
H49      H      0.783120000000     0.279690000000     0.695390000000     0.0533024  
H50      H      0.807680000000     0.253730000000     0.616850000000     0.0301438  
H51      H      0.758220000000     0.173150000000     0.655170000000     0.0318473  
H52      H      0.734240000000     0.197760000000     0.735130000000     0.0535062  
H53      H      0.697730000000     0.234380000000     0.756920000000     0.0534632  
H54      H      0.673230000000     0.258300000000     0.837090000000     0.031846   
H55      H      0.753960000000     0.307470000000     0.875560000000     0.0301465  
H56      H      0.779800000000     0.282980000000     0.796820000000     0.053282   
H57      H      0.759350000000     0.295110000000     0.234480000000     0.0534828  
H58      H      0.735060000000     0.319780000000     0.153800000000     0.032031   
H59      H      0.685950000000     0.239000000000     0.116010000000     0.0305568  
H60      H      0.710720000000     0.213070000000     0.195290000000     0.0533154  
H61      H      0.713910000000     0.209880000000     0.296890000000     0.0533161  
H62      H      0.739730000000     0.185180000000     0.376360000000     0.0305578  
H63      H      0.820610000000     0.234100000000     0.338550000000     0.031992   
H64      H      0.796040000000     0.258330000000     0.257680000000     0.0535156  
H65      H      0.677950000000     0.473790000000     0.092010000000     0.0532183  
H66      H      0.675450000000     0.419130000000     0.089130000000     0.0316378  
H67      H      0.673890000000     0.421440000000     0.906150000000     0.0306713  
H68      H      0.674840000000     0.476200000000     0.907130000000     0.0531401  
H69      H      0.704020000000     0.519300000000     0.924890000000     0.0534727  
H70      H      0.702270000000     0.574060000000     0.925660000000     0.0316438  
H71      H      0.649360000000     0.572210000000     0.078260000000     0.0302978  
H72      H      0.649270000000     0.517480000000     0.077490000000     0.0531744  
H73      H      0.211190000000     0.714130000000     0.701350000000     0.0533006  
H74      H      0.186470000000     0.739910000000     0.621860000000     0.0305399  
H75      H      0.235340000000     0.820850000000     0.659530000000     0.0319573  
H76      H      0.259590000000     0.796320000000     0.740440000000     0.053462   
H77      H      0.296370000000     0.759660000000     0.763740000000     0.0534294  
H78      H      0.321050000000     0.735360000000     0.844420000000     0.0320033  
H79      H      0.240290000000     0.686220000000     0.882210000000     0.030536   
H80      H      0.214360000000     0.710980000000     0.802930000000     0.0532743  
H81      H      0.235850000000     0.697920000000     0.241410000000     0.0535029  
H82      H      0.259760000000     0.673410000000     0.161260000000     0.0318523  
H83      H      0.308810000000     0.754200000000     0.122590000000     0.0301602  
H84      H      0.284310000000     0.780050000000     0.201330000000     0.0533352  
H85      H      0.280990000000     0.783440000000     0.302770000000     0.0533276  
H86      H      0.254980000000     0.807980000000     0.381280000000     0.0301578  
H87      H      0.174510000000     0.758360000000     0.342970000000     0.0318537  
H88      H      0.199170000000     0.734390000000     0.263050000000     0.0535042  
H89      H      0.477560000000     0.674750000000     0.090380000000     0.0531578  
H90      H      0.422810000000     0.674030000000     0.091570000000     0.0306809  
H91      H      0.420310000000     0.675180000000     0.908590000000     0.031628   
H92      H      0.474970000000     0.677450000000     0.905490000000     0.0532565  
H93      H      0.518540000000     0.648600000000     0.920050000000     0.0531056  
H94      H      0.573250000000     0.648420000000     0.919090000000     0.0302908  
H95      H      0.575520000000     0.701640000000     0.071300000000     0.0316689  
H96      H      0.520780000000     0.703660000000     0.072250000000     0.0534375  
H97      H      0.266680000000     0.211730000000     0.823010000000     0.0534735  
H98      H      0.292430000000     0.237400000000     0.900890000000     0.0303033  
H99      H      0.285850000000     0.321450000000     0.810380000000     0.0319863  
H100     H      0.260840000000     0.296480000000     0.731070000000     0.0534548  
H101     H      0.213110000000     0.273700000000     0.708840000000     0.0537365  
H102     H      0.186400000000     0.249120000000     0.631120000000     0.0314156  
H103     H      0.243300000000     0.171420000000     0.648230000000     0.0304522  
H104     H      0.271170000000     0.195650000000     0.725250000000     0.0532415  
H105     H      0.211560000000     0.267110000000     0.176170000000     0.0534714  
H106     H      0.237240000000     0.292810000000     0.098260000000     0.0303415  
H107     H      0.321270000000     0.286210000000     0.188770000000     0.0319924  
H108     H      0.296290000000     0.261250000000     0.268120000000     0.0534466  
H109     H      0.273520000000     0.213500000000     0.290290000000     0.053738   
H110     H      0.248940000000     0.186740000000     0.367950000000     0.0314382  
H111     H      0.171250000000     0.243660000000     0.350910000000     0.03044    
H112     H      0.195470000000     0.271570000000     0.273950000000     0.0532677  
H113     H      0.475730000000     0.349220000000     0.921440000000     0.0533733  
H114     H      0.420980000000     0.350110000000     0.921560000000     0.0304605  
H115     H      0.419380000000     0.278800000000     0.045840000000     0.0318195  
H116     H      0.474270000000     0.276730000000     0.045890000000     0.0536107  
H117     H      0.516820000000     0.306740000000     0.077800000000     0.0535978  
H118     H      0.571670000000     0.309270000000     0.080450000000     0.0305843  
H119     H      0.573690000000     0.323170000000     0.899200000000     0.0317269  
H120     H      0.519040000000     0.320010000000     0.894630000000     0.0534175  
H121     H      0.350020000000     0.475830000000     0.076830000000     0.0534193  
H122     H      0.350640000000     0.421070000000     0.076860000000     0.0304536  
H123     H      0.279040000000     0.419700000000     0.953200000000     0.0318284  
H124     H      0.277240000000     0.474620000000     0.953010000000     0.0536107  
H125     H      0.307340000000     0.517020000000     0.920740000000     0.0536257  
H126     H      0.310080000000     0.571870000000     0.917960000000     0.0306163  
H127     H      0.324460000000     0.573930000000     0.099080000000     0.0317247  
H128     H      0.321090000000     0.519290000000     0.103780000000     0.0534519  
In1      In     0.325320000000     0.325440000000     0.999490000000     2.41342    
In2      In     0.325780000000     0.668510000000     0.003200000000     2.41142    
In3      In     0.668300000000     0.324500000000     0.994930000000     2.41106    
In4      In     0.670030000000     0.668820000000     0.998410000000     2.41314    
In5      In     0.824940000000     0.167800000000     0.498210000000     2.41118    
In6      In     0.826040000000     0.824780000000     0.498370000000     2.41386    
In7      In     0.169010000000     0.825060000000     0.499900000000     2.41142    
In8      In     0.169230000000     0.169420000000     0.499460000000     2.41253    
N1       N      0.174730000000     0.917020000000     0.501620000000    -0.194347   
N2       N      0.175090000000     0.077630000000     0.504010000000    -0.193941   
N3       N      0.917140000000     0.814360000000     0.484550000000    -0.194382   
N4       N      0.077300000000     0.816910000000     0.493600000000    -0.194362   
N5       N      0.815210000000     0.915830000000     0.512500000000    -0.19439    
N6       N      0.817080000000     0.076040000000     0.504140000000    -0.19442    
N7       N      0.916860000000     0.173870000000     0.496720000000    -0.194311   
N8       N      0.077440000000     0.174970000000     0.494660000000    -0.193949   
N9       N      0.709090000000     0.712670000000     0.863790000000    -0.194837   
N10      N      0.781680000000     0.790440000000     0.636480000000    -0.194309   
N11      N      0.714100000000     0.707870000000     0.132780000000    -0.194973   
N12      N      0.791940000000     0.780400000000     0.360070000000    -0.194254   
N13      N      0.784590000000     0.211700000000     0.630270000000    -0.194468   
N14      N      0.711870000000     0.284500000000     0.862100000000    -0.194424   
N15      N      0.708830000000     0.281150000000     0.129130000000    -0.193692   
N16      N      0.781920000000     0.207980000000     0.363260000000    -0.193717   
N17      N      0.674390000000     0.416420000000     0.997490000000    -0.194293   
N18      N      0.675630000000     0.577010000000     0.001860000000    -0.193987   
N19      N      0.209250000000     0.782120000000     0.634890000000    -0.193767   
N20      N      0.282430000000     0.709110000000     0.869090000000    -0.193779   
N21      N      0.285900000000     0.712080000000     0.136140000000    -0.194507   
N22      N      0.213000000000     0.784800000000     0.367870000000    -0.194504   
N23      N      0.417700000000     0.674340000000     0.000240000000    -0.194264   
N24      N      0.578250000000     0.674830000000     0.995280000000    -0.193957   
N25      N      0.290670000000     0.281260000000     0.861430000000    -0.194273   
N26      N      0.212990000000     0.208590000000     0.634080000000    -0.194974   
N27      N      0.281100000000     0.291030000000     0.137710000000    -0.194253   
N28      N      0.208410000000     0.213340000000     0.365020000000    -0.194955   
N29      N      0.416320000000     0.314770000000     0.984140000000    -0.194339   
N30      N      0.576530000000     0.316640000000     0.990170000000    -0.194419   
N31      N      0.315140000000     0.416520000000     0.014610000000    -0.194288   
N32      N      0.317700000000     0.576750000000     0.008170000000    -0.19429    
O1       O      0.282210000000     0.311920000000     0.046850000000    -0.505405   
O2       O      0.324060000000     0.307140000000     0.090910000000    -0.496056   
O3       O      0.306900000000     0.324210000000     0.908160000000    -0.496129   
O4       O      0.301430000000     0.370000000000     0.978190000000    -0.493578   
O5       O      0.369770000000     0.301370000000     0.020820000000    -0.493288   
O6       O      0.336610000000     0.370830000000     0.040310000000    -0.507201   
O7       O      0.311650000000     0.282350000000     0.952210000000    -0.505652   
O8       O      0.370720000000     0.336410000000     0.958410000000    -0.507078   
O9       O      0.284460000000     0.675390000000     0.945080000000    -0.499117   
O10      O      0.323610000000     0.701820000000     0.928650000000    -0.498683   
O11      O      0.292610000000     0.671060000000     0.077050000000    -0.502363   
O12      O      0.325750000000     0.623210000000     0.049930000000    -0.500576   
O13      O      0.371850000000     0.673460000000     0.047200000000    -0.500611   
O14      O      0.317500000000     0.622690000000     0.960340000000    -0.499064   
O15      O      0.319400000000     0.709950000000     0.060530000000    -0.5007     
O16      O      0.370970000000     0.670090000000     0.956590000000    -0.498956   
O17      O      0.675140000000     0.283170000000     0.053090000000    -0.498901   
O18      O      0.701560000000     0.322330000000     0.069540000000    -0.498508   
O19      O      0.670850000000     0.291240000000     0.921200000000    -0.502089   
O20      O      0.622990000000     0.324430000000     0.948260000000    -0.500569   
O21      O      0.670100000000     0.369740000000     0.041360000000    -0.498463   
O22      O      0.622490000000     0.316440000000     0.037920000000    -0.499059   
O23      O      0.709720000000     0.318070000000     0.937620000000    -0.500841   
O24      O      0.673250000000     0.370510000000     0.950710000000    -0.500531   
O25      O      0.704880000000     0.668130000000     0.071280000000    -0.503402   
O26      O      0.678240000000     0.707630000000     0.060640000000    -0.501104   
O27      O      0.669370000000     0.703590000000     0.925400000000    -0.503472   
O28      O      0.684930000000     0.623730000000     0.960910000000    -0.49622    
O29      O      0.625050000000     0.683980000000     0.036000000000    -0.495877   
O30      O      0.661910000000     0.622930000000     0.040640000000    -0.503064   
O31      O      0.708820000000     0.676870000000     0.936060000000    -0.501068   
O32      O      0.624060000000     0.660830000000     0.956410000000    -0.502971   
O33      O      0.783770000000     0.174480000000     0.439620000000    -0.499003   
O34      O      0.822980000000     0.200830000000     0.423190000000    -0.498594   
O35      O      0.791430000000     0.170570000000     0.571480000000    -0.502119   
O36      O      0.824760000000     0.122660000000     0.545470000000    -0.500605   
O37      O      0.870340000000     0.169430000000     0.452310000000    -0.498565   
O38      O      0.817010000000     0.121820000000     0.455740000000    -0.499158   
O39      O      0.818360000000     0.209380000000     0.555100000000    -0.500479   
O40      O      0.870790000000     0.172930000000     0.542910000000    -0.500552   
O41      O      0.812380000000     0.781620000000     0.451290000000    -0.505356   
O42      O      0.808260000000     0.823360000000     0.406610000000    -0.496383   
O43      O      0.824630000000     0.806840000000     0.590020000000    -0.496265   
O44      O      0.870450000000     0.800760000000     0.520300000000    -0.493571   
O45      O      0.801880000000     0.869120000000     0.476480000000    -0.493632   
O46      O      0.871600000000     0.835900000000     0.458120000000    -0.507177   
O47      O      0.782900000000     0.811010000000     0.545360000000    -0.505447   
O48      O      0.836910000000     0.870350000000     0.538860000000    -0.507263   
O49      O      0.175740000000     0.783920000000     0.558560000000    -0.4991     
O50      O      0.202060000000     0.823160000000     0.574900000000    -0.498727   
O51      O      0.210600000000     0.818580000000     0.443020000000    -0.500682   
O52      O      0.123930000000     0.824830000000     0.452490000000    -0.500712   
O53      O      0.170380000000     0.870450000000     0.545910000000    -0.498594   
O54      O      0.123020000000     0.816930000000     0.542170000000    -0.499128   
O55      O      0.171860000000     0.791560000000     0.426640000000    -0.502182   
O56      O      0.174090000000     0.870960000000     0.455340000000    -0.500526   
O57      O      0.168800000000     0.204530000000     0.427000000000    -0.503559   
O58      O      0.207920000000     0.177250000000     0.436750000000    -0.500524   
O59      O      0.176970000000     0.208110000000     0.562230000000    -0.500684   
O60      O      0.123990000000     0.184350000000     0.536220000000    -0.495817   
O61      O      0.184360000000     0.124250000000     0.462630000000    -0.49566    
O62      O      0.123510000000     0.161170000000     0.456640000000    -0.503032   
O63      O      0.204240000000     0.168990000000     0.572040000000    -0.503859   
O64      O      0.161060000000     0.123630000000     0.542070000000    -0.503036   


