data_structure

_audit_creation_method RASPA-1.0
_audit_creation_date 2023-6-5
_audit_author_name 'Poobodin Mano'

_cell_length_a    42.6164
_cell_length_b    42.7746
_cell_length_c    24.8738
_cell_angle_alpha 89.6963
_cell_angle_beta  90.3037
_cell_angle_gamma 89.9995
_cell_volume      45341.2

_symmetry_cell_setting          triclinic
_symmetry_space_group_name_Hall 'P 1'
_symmetry_space_group_name_H-M  'P 1'
_symmetry_Int_Tables_number     1

_symmetry_equiv_pos_as_xyz 'x,y,z'

loop_
_atom_site_label
_atom_site_type_symbol
_atom_site_fract_x
_atom_site_fract_y
_atom_site_fract_z
_atom_site_charge
C1       C      0.338160000000     0.396750000000     0.974140000000     0.416876   
C2       C      0.309210000000     0.308360000000     0.895760000000     0.41324    
C3       C      0.399030000000     0.313710000000     0.981470000000     0.422396   
C4       C      0.309740000000     0.314040000000     0.072800000000     0.413345   
C5       C      0.344220000000     0.626400000000     0.967420000000     0.419213   
C6       C      0.309370000000     0.712690000000     0.059290000000     0.426141   
C7       C      0.403080000000     0.703970000000     0.973290000000     0.418872   
C8       C      0.311010000000     0.717630000000     0.890790000000     0.417711   
C9       C      0.627590000000     0.326670000000     0.970300000000     0.411484   
C10      C      0.715720000000     0.317300000000     0.866340000000     0.408819   
C11      C      0.702290000000     0.400230000000     0.943510000000     0.418461   
C12      C      0.710360000000     0.310050000000     0.048680000000     0.416927   
C13      C      0.705350000000     0.628810000000     0.959980000000     0.413449   
C14      C      0.718240000000     0.719050000000     0.876990000000     0.417366   
C15      C      0.632920000000     0.698960000000     0.976410000000     0.412315   
C16      C      0.724080000000     0.721770000000     0.049380000000     0.423526   
C17      C      0.822530000000     0.129190000000     0.465860000000     0.418304   
C18      C      0.805060000000     0.225310000000     0.539680000000     0.422723   
C19      C      0.897020000000     0.190030000000     0.459520000000     0.419763   
C20      C      0.806060000000     0.217900000000     0.374030000000     0.406715   
C21      C      0.904080000000     0.835410000000     0.460340000000     0.423246   
C22      C      0.812010000000     0.809970000000     0.551220000000     0.412695   
C23      C      0.830620000000     0.900250000000     0.477570000000     0.409714   
C24      C      0.817130000000     0.812150000000     0.376390000000     0.411873   
C25      C      0.134680000000     0.834140000000     0.465710000000     0.413051   
C26      C      0.222210000000     0.807110000000     0.385790000000     0.414901   
C27      C      0.213810000000     0.898930000000     0.469730000000     0.423323   
C28      C      0.220740000000     0.810510000000     0.562110000000     0.412813   
C29      C      0.128100000000     0.192060000000     0.475330000000     0.410972   
C30      C      0.218280000000     0.216820000000     0.568140000000     0.418191   
C31      C      0.201320000000     0.127730000000     0.480230000000     0.416431   
C32      C      0.217630000000     0.223910000000     0.399750000000     0.423194   
C33      C      0.221330000000     0.948180000000     0.422730000000     0.187714   
C34      C      0.219760000000     0.945750000000     0.518250000000     0.0784013  
C35      C      0.218940000000     0.980940000000     0.424930000000    -0.135026   
C36      C      0.228910000000     0.050480000000     0.439210000000    -0.0828933  
C37      C      0.218930000000     0.978280000000     0.521340000000    -0.0995011  
C38      C      0.214130000000     0.031000000000     0.476920000000     0.0270262  
C39      C      0.217390000000     0.996330000000     0.474380000000     0.0560619  
C40      C      0.224430000000     0.082810000000     0.440970000000     0.0716852  
C41      C      0.191880000000     0.077390000000     0.517450000000     0.0724815  
C42      C      0.195540000000     0.044950000000     0.516500000000    -0.083008   
C43      C      0.952910000000     0.845260000000     0.412760000000     0.186007   
C44      C      0.952570000000     0.824280000000     0.501740000000     0.0794853  
C45      C      0.985730000000     0.841960000000     0.411660000000    -0.135126   
C46      C      0.053560000000     0.856940000000     0.438030000000    -0.0831549  
C47      C      0.985180000000     0.821960000000     0.501960000000    -0.0998232  
C48      C      0.036990000000     0.831090000000     0.457770000000     0.0268201  
C49      C      0.002160000000     0.830940000000     0.456690000000     0.0563498  
C50      C      0.086240000000     0.857470000000     0.440930000000     0.0714526  
C51      C      0.086740000000     0.807260000000     0.481850000000     0.0721249  
C52      C      0.053960000000     0.806030000000     0.479900000000    -0.0831649  
C53      C      0.810160000000     0.079600000000     0.423870000000     0.186563   
C54      C      0.823700000000     0.082640000000     0.516730000000     0.0789535  
C55      C      0.811730000000     0.046800000000     0.426980000000    -0.135885   
C56      C      0.798810000000     0.978410000000     0.452490000000    -0.0832701  
C57      C      0.824390000000     0.050140000000     0.520960000000    -0.100266   
C58      C      0.820970000000     0.997200000000     0.478750000000     0.0263842  
C59      C      0.819020000000     0.031830000000     0.475570000000     0.0562865  
C60      C      0.801970000000     0.945920000000     0.453630000000     0.0713744  
C61      C      0.848050000000     0.950080000000     0.507000000000     0.0704178  
C62      C      0.845530000000     0.982630000000     0.506890000000    -0.0830471  
C63      C      0.946730000000     0.190790000000     0.411660000000     0.185857   
C64      C      0.944840000000     0.187140000000     0.507170000000     0.0781443  
C65      C      0.979560000000     0.193920000000     0.414600000000    -0.134566   
C66      C      0.048140000000     0.177610000000     0.427650000000    -0.083026   
C67      C      0.977470000000     0.188620000000     0.510560000000    -0.0993035  
C68      C      0.030240000000     0.192850000000     0.466720000000     0.0269364  
C69      C      0.995300000000     0.192320000000     0.464040000000     0.0560989  
C70      C      0.080830000000     0.177830000000     0.430980000000     0.0724489  
C71      C      0.078850000000     0.207600000000     0.511020000000     0.0714877  
C72      C      0.046060000000     0.208030000000     0.508720000000    -0.0824679  
C73      C      0.710390000000     0.743520000000     0.789570000000     0.186592   
C74      C      0.761560000000     0.736520000000     0.826790000000     0.0784065  
C75      C      0.723870000000     0.754040000000     0.741250000000    -0.135329   
C76      C      0.757260000000     0.796290000000     0.661560000000    -0.0830922  
C77      C      0.775250000000     0.747990000000     0.779890000000    -0.0998423  
C78      C      0.770550000000     0.770000000000     0.686660000000     0.0266376  
C79      C      0.756410000000     0.756680000000     0.736240000000     0.0562616  
C80      C      0.771280000000     0.809150000000     0.615940000000     0.0707944  
C81      C      0.811090000000     0.770430000000     0.618730000000     0.0717998  
C82      C      0.797740000000     0.757010000000     0.664570000000    -0.0830673  
C83      C      0.728570000000     0.765630000000     0.110610000000     0.186079   
C84      C      0.762060000000     0.721230000000     0.118500000000     0.079089   
C85      C      0.740770000000     0.777180000000     0.159240000000    -0.135149   
C86      C      0.785190000000     0.806210000000     0.240170000000    -0.0833485  
C87      C      0.775260000000     0.732930000000     0.165700000000    -0.0997905  
C88      C      0.778580000000     0.774200000000     0.236710000000     0.0267546  
C89      C      0.764420000000     0.761030000000     0.186980000000     0.0562081  
C90      C      0.798230000000     0.818400000000     0.287140000000     0.0720314  
C91      C      0.798710000000     0.768060000000     0.327530000000     0.0708296  
C92      C      0.785670000000     0.755040000000     0.281030000000    -0.0826788  
C93      C      0.759230000000     0.238980000000     0.591900000000     0.186666   
C94      C      0.809670000000     0.259540000000     0.613300000000     0.0783765  
C95      C      0.747470000000     0.251150000000     0.640120000000    -0.1352     
C96      C      0.723410000000     0.294530000000     0.725640000000    -0.0832024  
C97      C      0.798050000000     0.273040000000     0.660110000000    -0.0995307  
C98      C      0.753880000000     0.282220000000     0.724760000000     0.026523   
C99      C      0.766750000000     0.268440000000     0.674620000000     0.0561399  
C100     C      0.711130000000     0.306260000000     0.773320000000     0.0708     
C101     C      0.758670000000     0.294950000000     0.819390000000     0.0705972  
C102     C      0.771640000000     0.282770000000     0.772390000000    -0.0824516  
C103     C      0.723590000000     0.263530000000     0.100750000000     0.185576   
C104     C      0.731210000000     0.314620000000     0.136140000000     0.0782655  
C105     C      0.739180000000     0.250840000000     0.145840000000    -0.134626   
C106     C      0.753030000000     0.228980000000     0.259460000000    -0.0835398  
C107     C      0.745500000000     0.302330000000     0.182150000000    -0.0995044  
C108     C      0.764760000000     0.256550000000     0.236450000000     0.026357   
C109     C      0.750000000000     0.270130000000     0.187230000000     0.0557869  
C110     C      0.767110000000     0.216450000000     0.305550000000     0.0700815  
C111     C      0.804010000000     0.257930000000     0.307370000000     0.0702381  
C112     C      0.790530000000     0.271080000000     0.261130000000    -0.082721   
C113     C      0.692750000000     0.450000000000     0.899630000000     0.187188   
C114     C      0.726800000000     0.445930000000     0.975560000000     0.0787701  
C115     C      0.693820000000     0.482750000000     0.903360000000    -0.135228   
C116     C      0.713400000000     0.550880000000     0.901940000000    -0.0830875  
C117     C      0.728970000000     0.478410000000     0.978820000000    -0.0996961  
C118     C      0.712230000000     0.531870000000     0.947950000000     0.0269127  
C119     C      0.711750000000     0.497240000000     0.943340000000     0.0563336  
C120     C      0.711710000000     0.583340000000     0.906800000000     0.0708587  
C121     C      0.708610000000     0.578800000000     0.001680000000     0.0722036  
C122     C      0.710290000000     0.546250000000     0.998300000000    -0.0831318  
C123     C      0.264030000000     0.730110000000     0.838870000000     0.185788   
C124     C      0.314620000000     0.747440000000     0.811380000000     0.079003   
C125     C      0.251280000000     0.741520000000     0.790250000000    -0.134756   
C126     C      0.228440000000     0.786610000000     0.703050000000    -0.0831893  
C127     C      0.302220000000     0.759780000000     0.763930000000    -0.100392   
C128     C      0.256800000000     0.770030000000     0.702280000000     0.0267702  
C129     C      0.270300000000     0.756600000000     0.752520000000     0.0562176  
C130     C      0.216640000000     0.799930000000     0.655690000000     0.0721395  
C131     C      0.259990000000     0.780510000000     0.606680000000     0.0712006  
C132     C      0.272520000000     0.766990000000     0.653280000000    -0.0830961  
C133     C      0.273680000000     0.707410000000     0.134960000000     0.184955   
C134     C      0.300620000000     0.755100000000     0.117070000000     0.0785653  
C135     C      0.263060000000     0.719800000000     0.183930000000    -0.134578   
C136     C      0.227460000000     0.758260000000     0.265920000000    -0.0830917  
C137     C      0.289190000000     0.768170000000     0.164190000000    -0.10005    
C138     C      0.258260000000     0.764230000000     0.249200000000     0.0268324  
C139     C      0.270630000000     0.750390000000     0.198830000000     0.0558366  
C140     C      0.215910000000     0.772450000000     0.312220000000     0.0709432  
C141     C      0.264560000000     0.798140000000     0.326230000000     0.072032   
C142     C      0.276920000000     0.784220000000     0.280340000000    -0.0835922  
C143     C      0.451950000000     0.714490000000     0.927300000000     0.186697   
C144     C      0.450470000000     0.706550000000     0.022120000000     0.078518   
C145     C      0.484920000000     0.713340000000     0.929090000000    -0.136107   
C146     C      0.553740000000     0.728450000000     0.950430000000    -0.0839529  
C147     C      0.483150000000     0.706100000000     0.024850000000    -0.100596   
C148     C      0.535510000000     0.707170000000     0.979680000000     0.0264397  
C149     C      0.500740000000     0.708840000000     0.977900000000     0.0559286  
C150     C      0.586380000000     0.725730000000     0.950720000000     0.0716551  
C151     C      0.583450000000     0.681570000000     0.008560000000     0.0709636  
C152     C      0.550750000000     0.683780000000     0.009550000000    -0.0831117  
C153     C      0.261160000000     0.220810000000     0.632200000000     0.185518   
C154     C      0.216380000000     0.253970000000     0.637560000000     0.0780944  
C155     C      0.272090000000     0.232700000000     0.681430000000    -0.135014   
C156     C      0.283260000000     0.250620000000     0.797230000000    -0.0837776  
C157     C      0.227430000000     0.266800000000     0.685490000000    -0.0993417  
C158     C      0.268020000000     0.269550000000     0.759040000000     0.0269405  
C159     C      0.255380000000     0.255900000000     0.708440000000     0.0557053  
C160     C      0.296610000000     0.263970000000     0.843020000000     0.0722504  
C161     C      0.279460000000     0.314290000000     0.815270000000     0.0712884  
C162     C      0.265960000000     0.301730000000     0.768850000000    -0.0831707  
C163     C      0.262500000000     0.247570000000     0.355740000000     0.185935   
C164     C      0.211650000000     0.248590000000     0.315530000000     0.0788886  
C165     C      0.275280000000     0.259730000000     0.307980000000    -0.134971   
C166     C      0.292300000000     0.303370000000     0.215540000000    -0.0833007  
C167     C      0.223770000000     0.261540000000     0.268480000000    -0.0999339  
C168     C      0.269400000000     0.279890000000     0.213690000000     0.0267993  
C169     C      0.255970000000     0.266750000000     0.263930000000     0.0562371  
C170     C      0.305230000000     0.314870000000     0.167910000000     0.0719189  
C171     C      0.273270000000     0.280670000000     0.116590000000     0.071058   
C172     C      0.259710000000     0.268760000000     0.163410000000    -0.0830006  
C173     C      0.446850000000     0.299330000000     0.935550000000     0.187591   
C174     C      0.447010000000     0.311630000000     0.028760000000     0.0792612  
C175     C      0.479820000000     0.300850000000     0.935250000000    -0.135365   
C176     C      0.550100000000     0.291250000000     0.952220000000    -0.0832178  
C177     C      0.479700000000     0.312390000000     0.029640000000    -0.100314   
C178     C      0.531130000000     0.311800000000     0.981320000000     0.0264102  
C179     C      0.496470000000     0.308080000000     0.982180000000     0.0563186  
C180     C      0.582470000000     0.296250000000     0.949730000000     0.0705783  
C181     C      0.577830000000     0.341140000000     0.004660000000     0.0713255  
C182     C      0.545440000000     0.336770000000     0.008210000000    -0.0829074  
C183     C      0.369440000000     0.577050000000     0.988570000000     0.186864   
C184     C      0.321430000000     0.579060000000     0.939090000000     0.0785028  
C185     C      0.367000000000     0.544330000000     0.991320000000    -0.135552   
C186     C      0.367410000000     0.476450000000     0.957200000000    -0.0835558  
C187     C      0.319160000000     0.546520000000     0.940000000000    -0.0997942  
C188     C      0.340450000000     0.494120000000     0.967300000000     0.0269686  
C189     C      0.341940000000     0.528800000000     0.966750000000     0.0563546  
C190     C      0.366060000000     0.443900000000     0.959100000000     0.0717448  
C191     C      0.311900000000     0.445700000000     0.980360000000     0.0720606  
C192     C      0.312370000000     0.478400000000     0.978430000000    -0.0831224  
H1       H      0.236100000000     0.097030000000     0.410900000000     0.0301924  
H2       H      0.219380000000     0.932890000000     0.555950000000     0.0283157  
H3       H      0.183270000000     0.030930000000     0.546030000000     0.0516185  
H4       H      0.218930000000     0.989140000000     0.560570000000     0.0554791  
H5       H      0.244020000000     0.040930000000     0.408550000000     0.0504057  
H6       H      0.218730000000     0.994310000000     0.387810000000     0.0650919  
H7       H      0.177100000000     0.087210000000     0.548450000000     0.0302208  
H8       H      0.235470000000     0.912090000000     0.369850000000     0.111759   
H9       H      0.228380000000     0.948620000000     0.339210000000     0.0904009  
H10      H      0.098140000000     0.878040000000     0.425570000000     0.0310192  
H11      H      0.940520000000     0.816570000000     0.537770000000     0.0294136  
H12      H      0.042000000000     0.785550000000     0.495340000000     0.0517946  
H13      H      0.997040000000     0.813700000000     0.537950000000     0.0564015  
H14      H      0.041350000000     0.877030000000     0.421410000000     0.0513597  
H15      H      0.998610000000     0.849480000000     0.376400000000     0.065263   
H16      H      0.099120000000     0.787470000000     0.499230000000     0.0305636  
H17      H      0.952240000000     0.867500000000     0.337290000000     0.0899238  
H18      H      0.916600000000     0.870180000000     0.371710000000     0.110293   
H19      H      0.784560000000     0.932170000000     0.432300000000     0.0312788  
H20      H      0.829170000000     0.095770000000     0.552790000000     0.0290519  
H21      H      0.863260000000     0.996300000000     0.527460000000     0.0514512  
H22      H      0.829430000000     0.039440000000     0.559620000000     0.0561556  
H23      H      0.779150000000     0.988710000000     0.431060000000     0.0508765  
H24      H      0.806670000000     0.033000000000     0.391550000000     0.0649827  
H25      H      0.867730000000     0.939680000000     0.528350000000     0.030113   
H26      H      0.791140000000     0.115700000000     0.374590000000     0.115332   
H27      H      0.793320000000     0.078680000000     0.344390000000     0.0899636  
H28      H      0.093740000000     0.165630000000     0.400040000000     0.0304845  
H29      H      0.932200000000     0.185040000000     0.544770000000     0.0290817  
H30      H      0.033250000000     0.220420000000     0.539480000000     0.0516036  
H31      H      0.988610000000     0.186580000000     0.549660000000     0.0557497  
H32      H      0.037040000000     0.165000000000     0.395060000000     0.0507626  
H33      H      0.992880000000     0.196340000000     0.377820000000     0.0651712  
H34      H      0.090240000000     0.219570000000     0.544120000000     0.0311606  
H35      H      0.911250000000     0.178460000000     0.355020000000     0.111206   
H36      H      0.947350000000     0.189440000000     0.327280000000     0.0904149  
H37      H      0.760460000000     0.829690000000     0.598050000000     0.0297332  
H38      H      0.777320000000     0.729400000000     0.858990000000     0.0281414  
H39      H      0.808570000000     0.736510000000     0.682420000000     0.0519221  
H40      H      0.800540000000     0.750250000000     0.778090000000     0.0560333  
H41      H      0.736500000000     0.807340000000     0.677690000000     0.0506677  
H42      H      0.708790000000     0.761290000000     0.708220000000     0.0650823  
H43      H      0.832190000000     0.759790000000     0.602900000000     0.0310133  
H44      H      0.664770000000     0.753470000000     0.762060000000     0.0901395  
H45      H      0.666910000000     0.745150000000     0.831160000000     0.115327   
H46      H      0.802960000000     0.843310000000     0.288130000000     0.0311227  
H47      H      0.770750000000     0.698870000000     0.104570000000     0.0289366  
H48      H      0.780740000000     0.730200000000     0.280160000000     0.0515634  
H49      H      0.793990000000     0.720000000000     0.185270000000     0.0562178  
H50      H      0.780660000000     0.821800000000     0.206570000000     0.0509321  
H51      H      0.732460000000     0.799380000000     0.174440000000     0.0650158  
H52      H      0.803660000000     0.752570000000     0.361170000000     0.0297393  
H53      H      0.703840000000     0.781460000000     0.041140000000     0.108988   
H54      H      0.701920000000     0.806250000000     0.097070000000     0.0896937  
H55      H      0.687390000000     0.315380000000     0.772250000000     0.0299311  
H56      H      0.834410000000     0.262860000000     0.604940000000     0.0281437  
H57      H      0.795190000000     0.273280000000     0.773760000000     0.0515812  
H58      H      0.813650000000     0.286910000000     0.684870000000     0.0555517  
H59      H      0.709040000000     0.295310000000     0.689620000000     0.0501516  
H60      H      0.722940000000     0.247770000000     0.649800000000     0.0651457  
H61      H      0.772980000000     0.294710000000     0.855570000000     0.0307698  
H62      H      0.743210000000     0.223000000000     0.515810000000     0.108275   
H63      H      0.714480000000     0.224670000000     0.566150000000     0.0898934  
H64      H      0.757310000000     0.195080000000     0.322030000000     0.0280504  
H65      H      0.729130000000     0.339870000000     0.133720000000     0.0298229  
H66      H      0.800550000000     0.292270000000     0.244480000000     0.0516175  
H67      H      0.752870000000     0.318110000000     0.213700000000     0.0555977  
H68      H      0.732790000000     0.217260000000     0.242450000000     0.0497547  
H69      H      0.741870000000     0.225710000000     0.149330000000     0.0646165  
H70      H      0.824010000000     0.269740000000     0.325140000000     0.0311121  
H71      H      0.692210000000     0.249650000000     0.038500000000     0.109953   
H72      H      0.712060000000     0.219030000000     0.071340000000     0.0897768  
H73      H      0.712290000000     0.597220000000     0.870210000000     0.0299468  
H74      H      0.739580000000     0.432370000000     0.005450000000     0.0290131  
H75      H      0.709110000000     0.532440000000     0.034870000000     0.0521523  
H76      H      0.743750000000     0.488700000000     0.009560000000     0.0560373  
H77      H      0.715480000000     0.540770000000     0.862290000000     0.0508577  
H78      H      0.680930000000     0.496860000000     0.874430000000     0.0655514  
H79      H      0.706530000000     0.589040000000     0.041300000000     0.0309122  
H80      H      0.681420000000     0.414150000000     0.844110000000     0.109133   
H81      H      0.667070000000     0.451570000000     0.827330000000     0.0906702  
H82      H      0.194770000000     0.812810000000     0.657960000000     0.0305488  
H83      H      0.339730000000     0.749900000000     0.817410000000     0.0272958  
H84      H      0.294330000000     0.754080000000     0.650820000000     0.0515481  
H85      H      0.317670000000     0.771900000000     0.736360000000     0.0555799  
H86      H      0.215730000000     0.789850000000     0.740190000000     0.0510594  
H87      H      0.226290000000     0.739470000000     0.782700000000     0.065095   
H88      H      0.272880000000     0.777660000000     0.569550000000     0.030372   
H89      H      0.219550000000     0.718350000000     0.868750000000     0.0894274  
H90      H      0.249550000000     0.716590000000     0.917340000000     0.107518   
H91      H      0.191860000000     0.767540000000     0.323510000000     0.0297901  
H92      H      0.315710000000     0.769760000000     0.092620000000     0.0286963  
H93      H      0.301010000000     0.789110000000     0.269450000000     0.0514343  
H94      H      0.294930000000     0.792250000000     0.173270000000     0.0553517  
H95      H      0.212030000000     0.743320000000     0.242770000000     0.050451   
H96      H      0.248060000000     0.705780000000     0.209560000000     0.0648482  
H97      H      0.279680000000     0.813650000000     0.349000000000     0.0296258  
H98      H      0.262760000000     0.671040000000     0.079970000000     0.108945   
H99      H      0.246790000000     0.666640000000     0.144470000000     0.0898197  
H100     H      0.599660000000     0.742510000000     0.927240000000     0.0282766  
H101     H      0.437890000000     0.703140000000     0.059490000000     0.0279355  
H102     H      0.537460000000     0.666770000000     0.032460000000     0.0512555  
H103     H      0.494580000000     0.703270000000     0.063590000000     0.0559421  
H104     H      0.542860000000     0.747140000000     0.927440000000     0.0505523  
H105     H      0.498190000000     0.716450000000     0.892380000000     0.0650791  
H106     H      0.594410000000     0.662840000000     0.031430000000     0.0300946  
H107     H      0.451360000000     0.726500000000     0.845320000000     0.090171   
H108     H      0.414610000000     0.729820000000     0.876830000000     0.115357   
H109     H      0.308450000000     0.248550000000     0.871310000000     0.0296993  
H110     H      0.194030000000     0.262500000000     0.622420000000     0.0293777  
H111     H      0.254740000000     0.317330000000     0.740220000000     0.0512337  
H112     H      0.213690000000     0.284720000000     0.705010000000     0.055765   
H113     H      0.284940000000     0.225560000000     0.791820000000     0.0514316  
H114     H      0.294690000000     0.225120000000     0.696910000000     0.0645019  
H115     H      0.277750000000     0.339340000000     0.821070000000     0.0302474  
H116     H      0.302310000000     0.194720000000     0.620570000000     0.0895652  
H117     H      0.278030000000     0.196930000000     0.563370000000     0.108298   
H118     H      0.322990000000     0.332940000000     0.170990000000     0.030483   
H119     H      0.186600000000     0.244070000000     0.316300000000     0.0286653  
H120     H      0.242220000000     0.250480000000     0.160240000000     0.0519031  
H121     H      0.207930000000     0.267290000000     0.235680000000     0.0561503  
H122     H      0.300100000000     0.312940000000     0.253560000000     0.0510645  
H123     H      0.300250000000     0.264360000000     0.305760000000     0.0652172  
H124     H      0.265450000000     0.271190000000     0.078460000000     0.0304434  
H125     H      0.273680000000     0.242390000000     0.438700000000     0.10564    
H126     H      0.305670000000     0.250520000000     0.396530000000     0.0891888  
H127     H      0.596350000000     0.279990000000     0.926470000000     0.0296386  
H128     H      0.435100000000     0.316680000000     0.066170000000     0.0284336  
H129     H      0.531620000000     0.353380000000     0.030730000000     0.0519441  
H130     H      0.491750000000     0.317090000000     0.067190000000     0.0555637  
H131     H      0.540030000000     0.271420000000     0.931440000000     0.0503021  
H132     H      0.492380000000     0.296320000000     0.898320000000     0.0654362  
H133     H      0.587940000000     0.361010000000     0.025360000000     0.0307557  
H134     H      0.408600000000     0.281560000000     0.890190000000     0.110766   
H135     H      0.444710000000     0.283160000000     0.856030000000     0.0902615  
H136     H      0.387500000000     0.431100000000     0.951200000000     0.03052    
H137     H      0.302700000000     0.591830000000     0.919040000000     0.0283245  
H138     H      0.291050000000     0.491260000000     0.986660000000     0.0518048  
H139     H      0.299670000000     0.535310000000     0.919650000000     0.056143   
H140     H      0.389470000000     0.487680000000     0.947560000000     0.0514155  
H141     H      0.385320000000     0.530920000000     0.011220000000     0.0656175  
H142     H      0.289870000000     0.434280000000     0.989730000000     0.0299555  
H143     H      0.403470000000     0.613090000000     0.996810000000     0.108914   
H144     H      0.414110000000     0.576750000000     0.024690000000     0.0902986  
In1      In     0.338520000000     0.333570000000     0.981720000000     2.40721    
In2      In     0.341280000000     0.689590000000     0.974010000000     2.41516    
In3      In     0.689500000000     0.338680000000     0.957830000000     2.4137     
In4      In     0.695700000000     0.691280000000     0.966990000000     2.40287    
In5      In     0.833340000000     0.191520000000     0.461540000000     2.4122     
In6      In     0.840660000000     0.838140000000     0.467030000000     2.40502    
In7      In     0.198010000000     0.837400000000     0.471270000000     2.40795    
In8      In     0.191370000000     0.190170000000     0.480760000000     2.41209    
N1       N      0.219150000000     0.930650000000     0.469620000000    -0.213988   
N2       N      0.205950000000     0.096080000000     0.479630000000    -0.194214   
N3       N      0.227650000000     0.935000000000     0.374210000000    -0.218259   
N4       N      0.936300000000     0.835270000000     0.457610000000    -0.213266   
N5       N      0.102650000000     0.832870000000     0.462790000000    -0.193844   
N6       N      0.939150000000     0.860900000000     0.370920000000    -0.218664   
N7       N      0.818150000000     0.097390000000     0.468360000000    -0.213391   
N8       N      0.826690000000     0.931960000000     0.479890000000    -0.193497   
N9       N      0.798550000000     0.092560000000     0.377720000000    -0.219592   
N10      N      0.929300000000     0.189010000000     0.458630000000    -0.21322    
N11      N      0.096020000000     0.192580000000     0.472450000000    -0.192834   
N12      N      0.933710000000     0.187140000000     0.361890000000    -0.218239   
N13      N      0.729580000000     0.733310000000     0.831410000000    -0.212869   
N14      N      0.798080000000     0.796420000000     0.594980000000    -0.194151   
N15      N      0.678670000000     0.746330000000     0.794640000000    -0.219358   
N16      N      0.738200000000     0.736660000000     0.091980000000    -0.213811   
N17      N      0.804790000000     0.799500000000     0.330490000000    -0.193713   
N18      N      0.709340000000     0.784850000000     0.081500000000    -0.218298   
N19      N      0.790970000000     0.241540000000     0.580560000000    -0.214359   
N20      N      0.728550000000     0.306270000000     0.819840000000    -0.193674   
N21      N      0.738150000000     0.227010000000     0.556090000000    -0.217958   
N22      N      0.721200000000     0.295750000000     0.094850000000    -0.2126     
N23      N      0.792420000000     0.230790000000     0.329180000000    -0.193433   
N24      N      0.709210000000     0.243170000000     0.066580000000    -0.218296   
N25      N      0.707630000000     0.431770000000     0.938340000000    -0.213573   
N26      N      0.708810000000     0.597100000000     0.956210000000    -0.194418   
N27      N      0.678690000000     0.437400000000     0.855420000000    -0.218138   
N28      N      0.296170000000     0.731790000000     0.847890000000    -0.212726   
N29      N      0.232380000000     0.796980000000     0.608030000000    -0.19378    
N30      N      0.243570000000     0.719960000000     0.877120000000    -0.218071   
N31      N      0.294060000000     0.724710000000     0.103140000000    -0.214976   
N32      N      0.234240000000     0.792470000000     0.341700000000    -0.194621   
N33      N      0.261460000000     0.679480000000     0.119040000000    -0.218551   
N34      N      0.434890000000     0.709090000000     0.973740000000    -0.21375    
N35      N      0.601030000000     0.702200000000     0.978930000000    -0.194233   
N36      N      0.438040000000     0.723110000000     0.880040000000    -0.219568   
N37      N      0.232320000000     0.230460000000     0.611960000000    -0.213633   
N38      N      0.294990000000     0.295570000000     0.851610000000    -0.193771   
N39      N      0.280960000000     0.202100000000     0.603930000000    -0.218414   
N40      N      0.230780000000     0.240360000000     0.357970000000    -0.214495   
N41      N      0.295990000000     0.303360000000     0.118950000000    -0.194302   
N42      N      0.281730000000     0.245540000000     0.399590000000    -0.218008   
N43      N      0.430610000000     0.307220000000     0.981680000000    -0.214043   
N44      N      0.596090000000     0.321230000000     0.975160000000    -0.194202   
N45      N      0.432080000000     0.288350000000     0.890770000000    -0.218607   
N46      N      0.345580000000     0.594370000000     0.964670000000    -0.213653   
N47      N      0.338600000000     0.428690000000     0.971070000000    -0.194704   
N48      N      0.396760000000     0.590280000000     0.005920000000    -0.218208   
O1       O      0.303000000000     0.303390000000     0.026960000000    -0.503887   
O2       O      0.330760000000     0.334830000000     0.072610000000    -0.498661   
O3       O      0.308210000000     0.337270000000     0.905970000000    -0.503078   
O4       O      0.313970000000     0.381280000000     0.986510000000    -0.498009   
O5       O      0.383530000000     0.317490000000     0.024090000000    -0.503099   
O6       O      0.362150000000     0.380310000000     0.965410000000    -0.509798   
O7       O      0.324860000000     0.292260000000     0.929170000000    -0.499049   
O8       O      0.383850000000     0.320110000000     0.939180000000    -0.503182   
O9       O      0.298800000000     0.696110000000     0.918600000000    -0.504992   
O10      O      0.338990000000     0.723920000000     0.903860000000    -0.503913   
O11      O      0.311140000000     0.683910000000     0.049320000000    -0.514826   
O12      O      0.358480000000     0.641960000000     0.002760000000    -0.511471   
O13      O      0.388240000000     0.695330000000     0.931890000000    -0.505146   
O14      O      0.327100000000     0.642730000000     0.936590000000    -0.499801   
O15      O      0.324750000000     0.729600000000     0.027110000000    -0.514394   
O16      O      0.386650000000     0.704760000000     0.015470000000    -0.503075   
O17      O      0.707940000000     0.296280000000     0.004130000000    -0.507697   
O18      O      0.703530000000     0.338790000000     0.046570000000    -0.501914   
O19      O      0.687620000000     0.326470000000     0.869020000000    -0.503301   
O20      O      0.645480000000     0.309260000000     0.943400000000    -0.500824   
O21      O      0.719400000000     0.382490000000     0.971980000000    -0.500634   
O22      O      0.641020000000     0.349950000000     0.991250000000    -0.503133   
O23      O      0.730800000000     0.318880000000     0.910140000000    -0.498688   
O24      O      0.678450000000     0.386940000000     0.924030000000    -0.51       
O25      O      0.736100000000     0.698330000000     0.026650000000    -0.500507   
O26      O      0.697280000000     0.728960000000     0.031560000000    -0.515455   
O27      O      0.691280000000     0.707020000000     0.879730000000    -0.496174   
O28      O      0.704430000000     0.646580000000     0.919340000000    -0.506947   
O29      O      0.650080000000     0.717410000000     0.949870000000    -0.497669   
O30      O      0.701780000000     0.642620000000     0.004240000000    -0.496767   
O31      O      0.734570000000     0.715490000000     0.919180000000    -0.505291   
O32      O      0.647550000000     0.676800000000     0.999100000000    -0.501265   
O33      O      0.796660000000     0.192560000000     0.394660000000    -0.502348   
O34      O      0.829240000000     0.230140000000     0.397840000000    -0.49612    
O35      O      0.792530000000     0.202150000000     0.517110000000    -0.514089   
O36      O      0.824290000000     0.146050000000     0.507350000000    -0.500123   
O37      O      0.880430000000     0.198400000000     0.419930000000    -0.506732   
O38      O      0.827380000000     0.143800000000     0.422500000000    -0.506031   
O39      O      0.832680000000     0.230850000000     0.524030000000    -0.507201   
O40      O      0.881320000000     0.183930000000     0.501240000000    -0.505916   
O41      O      0.823570000000     0.796120000000     0.417830000000    -0.50274    
O42      O      0.822780000000     0.840980000000     0.380850000000    -0.496831   
O43      O      0.836810000000     0.799450000000     0.530480000000    -0.496806   
O44      O      0.889520000000     0.833240000000     0.504300000000    -0.49724    
O45      O      0.812100000000     0.882570000000     0.452110000000    -0.488957   
O46      O      0.886400000000     0.837010000000     0.419670000000    -0.513564   
O47      O      0.801470000000     0.834420000000     0.528960000000    -0.509604   
O48      O      0.853760000000     0.886420000000     0.498850000000    -0.504434   
O49      O      0.234280000000     0.808360000000     0.517250000000    -0.505623   
O50      O      0.195700000000     0.826330000000     0.561170000000    -0.496964   
O51      O      0.194580000000     0.802540000000     0.402160000000    -0.506147   
O52      O      0.151240000000     0.812080000000     0.484470000000    -0.493137   
O53      O      0.214130000000     0.882580000000     0.512200000000    -0.506441   
O54      O      0.150130000000     0.857590000000     0.449940000000    -0.504952   
O55      O      0.237660000000     0.826730000000     0.412900000000    -0.501556   
O56      O      0.205040000000     0.884130000000     0.428640000000    -0.503124   
O57      O      0.188390000000     0.222390000000     0.407010000000    -0.506481   
O58      O      0.233350000000     0.207320000000     0.432030000000    -0.511476   
O59      O      0.196130000000     0.229620000000     0.542180000000    -0.501078   
O60      O      0.143390000000     0.204170000000     0.513660000000    -0.493721   
O61      O      0.212120000000     0.145820000000     0.444500000000    -0.501661   
O62      O      0.144820000000     0.179200000000     0.439910000000    -0.502912   
O63      O      0.225340000000     0.189930000000     0.551680000000    -0.511453   
O64      O      0.185600000000     0.141220000000     0.516250000000    -0.504065   


