data_structure

_audit_creation_method RASPA-1.0
_audit_creation_date 2023-6-5
_audit_author_name 'Poobodin Mano'

_cell_length_a    43.7706
_cell_length_b    42.8133
_cell_length_c    24.3914
_cell_angle_alpha 89.6975
_cell_angle_beta  90.3026
_cell_angle_gamma 89.9995
_cell_volume      45707.3

_symmetry_cell_setting          triclinic
_symmetry_space_group_name_Hall 'P 1'
_symmetry_space_group_name_H-M  'P 1'
_symmetry_Int_Tables_number     1

_symmetry_equiv_pos_as_xyz 'x,y,z'

loop_
_atom_site_label
_atom_site_type_symbol
_atom_site_fract_x
_atom_site_fract_y
_atom_site_fract_z
_atom_site_charge
C1       C      0.318650000000     0.403430000000     0.000350000000     0.413831   
C2       C      0.304280000000     0.314910000000     0.896250000000     0.410568   
C3       C      0.387160000000     0.327950000000     0.973740000000     0.417065   
C4       C      0.298760000000     0.318710000000     0.079010000000     0.41378    
C5       C      0.324060000000     0.632990000000     0.986950000000     0.416686   
C6       C      0.306400000000     0.723470000000     0.074150000000     0.419178   
C7       C      0.390300000000     0.709260000000     0.977360000000     0.417001   
C8       C      0.301110000000     0.719600000000     0.893520000000     0.414927   
C9       C      0.611230000000     0.318510000000     0.953880000000     0.415757   
C10      C      0.700590000000     0.301950000000     0.868680000000     0.413689   
C11      C      0.677910000000     0.389000000000     0.965070000000     0.415369   
C12      C      0.699440000000     0.297230000000     0.044000000000     0.415768   
C13      C      0.681340000000     0.618520000000     0.982930000000     0.416093   
C14      C      0.696870000000     0.707500000000     0.883030000000     0.412125   
C15      C      0.613540000000     0.696550000000     0.962330000000     0.411726   
C16      C      0.699870000000     0.699930000000     0.069740000000     0.416771   
C17      C      0.820580000000     0.118760000000     0.462070000000     0.408804   
C18      C      0.800370000000     0.211570000000     0.544300000000     0.416366   
C19      C      0.887960000000     0.194190000000     0.464300000000     0.423633   
C20      C      0.797820000000     0.201550000000     0.367030000000     0.415221   
C21      C      0.889400000000     0.821050000000     0.476150000000     0.417173   
C22      C      0.800380000000     0.797800000000     0.561280000000     0.419833   
C23      C      0.820360000000     0.888760000000     0.469560000000     0.418957   
C24      C      0.800190000000     0.795710000000     0.389680000000     0.412861   
C25      C      0.114180000000     0.833010000000     0.474890000000     0.416818   
C26      C      0.204800000000     0.819630000000     0.390560000000     0.41834    
C27      C      0.183790000000     0.903800000000     0.492640000000     0.417765   
C28      C      0.200630000000     0.811100000000     0.567490000000     0.415848   
C29      C      0.111890000000     0.205250000000     0.482690000000     0.412898   
C30      C      0.199590000000     0.222110000000     0.578130000000     0.419181   
C31      C      0.180270000000     0.133370000000     0.495070000000     0.414847   
C32      C      0.199310000000     0.225810000000     0.402330000000     0.416509   
C33      C      0.179490000000     0.951750000000     0.545690000000     0.0995716  
C34      C      0.196730000000     0.952450000000     0.453310000000     0.0728458  
C35      C      0.180240000000     0.984520000000     0.546450000000    -0.0957743  
C36      C      0.162660000000     0.051560000000     0.524180000000    -0.085986   
C37      C      0.197660000000     0.985020000000     0.453330000000    -0.0882063  
C38      C      0.187200000000     0.036190000000     0.499420000000     0.0340005  
C39      C      0.188700000000     0.001480000000     0.499810000000     0.0398568  
C40      C      0.160950000000     0.084070000000     0.522750000000     0.0733112  
C41      C      0.207310000000     0.086870000000     0.473090000000     0.0731108  
C42      C      0.209740000000     0.054270000000     0.473730000000    -0.085408   
C43      C      0.938040000000     0.812430000000     0.523880000000     0.0983079  
C44      C      0.936100000000     0.826740000000     0.429510000000     0.0727565  
C45      C      0.970130000000     0.813340000000     0.522240000000    -0.0949127  
C46      C      0.037650000000     0.802210000000     0.501660000000    -0.0854062  
C47      C      0.967890000000     0.827570000000     0.427070000000    -0.0883351  
C48      C      0.019290000000     0.823500000000     0.472570000000     0.0342271  
C49      C      0.985350000000     0.821210000000     0.473840000000     0.0398564  
C50      C      0.069410000000     0.805550000000     0.501620000000     0.0732316  
C51      C      0.065450000000     0.850090000000     0.443850000000     0.0741164  
C52      C      0.033650000000     0.847530000000     0.443170000000    -0.0857152  
C53      C      0.802650000000     0.936810000000     0.425060000000     0.0986949  
C54      C      0.830150000000     0.937750000000     0.509470000000     0.0730497  
C55      C      0.801810000000     0.969630000000     0.424760000000    -0.095465   
C56      C      0.820220000000     0.037620000000     0.416130000000    -0.085338   
C57      C      0.829640000000     0.970280000000     0.509750000000    -0.0886434  
C58      C      0.815890000000     0.021440000000     0.465600000000     0.0336837  
C59      C      0.815630000000     0.986680000000     0.466890000000     0.0401366  
C60      C      0.821280000000     0.070200000000     0.415670000000     0.0726062  
C61      C      0.813760000000     0.071400000000     0.511830000000     0.0730827  
C62      C      0.812420000000     0.038800000000     0.513770000000    -0.0852872  
C63      C      0.934000000000     0.221640000000     0.433890000000     0.0990849  
C64      C      0.936050000000     0.181540000000     0.501810000000     0.0731368  
C65      C      0.965960000000     0.224690000000     0.436950000000    -0.0955929  
C66      C      0.034170000000     0.209880000000     0.427240000000    -0.0855472  
C67      C      0.967660000000     0.184400000000     0.505650000000    -0.0890165  
C68      C      0.016840000000     0.208240000000     0.475300000000     0.0342715  
C69      C      0.983020000000     0.205950000000     0.472790000000     0.0402388  
C70      C      0.066070000000     0.209590000000     0.430420000000     0.0730321  
C71      C      0.063990000000     0.207400000000     0.527520000000     0.0747614  
C72      C      0.032130000000     0.207490000000     0.525840000000    -0.0861084  
C73      C      0.792820000000     0.753750000000     0.624100000000     0.0989334  
C74      C      0.764770000000     0.801060000000     0.633130000000     0.0731834  
C75      C      0.777340000000     0.741290000000     0.669550000000    -0.0953771  
C76      C      0.729530000000     0.714470000000     0.745870000000    -0.0857016  
C77      C      0.749190000000     0.789070000000     0.678230000000    -0.0886719  
C78      C      0.739010000000     0.745730000000     0.745190000000     0.034143   
C79      C      0.755310000000     0.758870000000     0.696950000000     0.0402152  
C80      C      0.715120000000     0.702190000000     0.792110000000     0.0738303  
C81      C      0.718590000000     0.751110000000     0.836850000000     0.0734056  
C82      C      0.733130000000     0.764150000000     0.791300000000    -0.0853548  
C83      C      0.698690000000     0.711170000000     0.167960000000     0.0987787  
C84      C      0.742690000000     0.721880000000     0.114090000000     0.0726726  
C85      C      0.713340000000     0.724220000000     0.213850000000    -0.0954362  
C86      C      0.741350000000     0.771360000000     0.291880000000    -0.0858078  
C87      C      0.757610000000     0.734800000000     0.159220000000    -0.0882458  
C88      C      0.757890000000     0.751500000000     0.257530000000     0.0343683  
C89      C      0.742840000000     0.736490000000     0.209640000000     0.0399753  
C90      C      0.755870000000     0.785830000000     0.336050000000     0.074252   
C91      C      0.802720000000     0.761360000000     0.313570000000     0.0736891  
C92      C      0.788940000000     0.746540000000     0.268910000000    -0.08555    
C93      C      0.796380000000     0.254850000000     0.609060000000     0.0988637  
C94      C      0.763230000000     0.210870000000     0.613850000000     0.073537   
C95      C      0.782070000000     0.267580000000     0.655360000000    -0.0951262  
C96      C      0.760140000000     0.280590000000     0.770930000000    -0.085556   
C97      C      0.748870000000     0.223080000000     0.659870000000    -0.0883686  
C98      C      0.743120000000     0.264960000000     0.730630000000     0.0341223  
C99      C      0.758240000000     0.251680000000     0.681380000000     0.039992   
C100     C      0.745540000000     0.292880000000     0.816840000000     0.0738378  
C101     C      0.697680000000     0.274500000000     0.784460000000     0.073413   
C102     C      0.711500000000     0.262070000000     0.737930000000    -0.0853985  
C103     C      0.789980000000     0.201740000000     0.267780000000     0.0987067  
C104     C      0.761570000000     0.235170000000     0.326290000000     0.0726203  
C105     C      0.775340000000     0.215070000000     0.221890000000    -0.0955237  
C106     C      0.727200000000     0.236200000000     0.137410000000    -0.0860411  
C107     C      0.747070000000     0.248870000000     0.281230000000    -0.0887033  
C108     C      0.739540000000     0.254110000000     0.180000000000     0.0344153  
C109     C      0.754060000000     0.239040000000     0.228370000000     0.0399948  
C110     C      0.713700000000     0.250990000000     0.092160000000     0.0739589  
C111     C      0.724930000000     0.300680000000     0.129810000000     0.0741183  
C112     C      0.738220000000     0.286690000000     0.175890000000    -0.0861404  
C113     C      0.710350000000     0.570420000000     0.968360000000     0.0989574  
C114     C      0.658960000000     0.569450000000     0.999700000000     0.0733767  
C115     C      0.710420000000     0.537580000000     0.966590000000    -0.095327   
C116     C      0.697100000000     0.470330000000     0.933420000000    -0.0854413  
C117     C      0.658620000000     0.536960000000     0.998270000000    -0.0887358  
C118     C      0.683790000000     0.485930000000     0.977710000000     0.0342     
C119     C      0.684360000000     0.520600000000     0.981010000000     0.0401366  
C120     C      0.695160000000     0.437810000000     0.929970000000     0.073444   
C121     C      0.667610000000     0.435730000000     0.013360000000     0.0745512  
C122     C      0.669160000000     0.468140000000     0.018160000000    -0.0860116  
C123     C      0.218590000000     0.764170000000     0.615660000000     0.099025   
C124     C      0.222740000000     0.814650000000     0.655400000000     0.0726173  
C125     C      0.232730000000     0.751110000000     0.662390000000    -0.0951516  
C126     C      0.248370000000     0.727830000000     0.777330000000    -0.0854554  
C127     C      0.236610000000     0.802120000000     0.702050000000    -0.0883057  
C128     C      0.257540000000     0.756590000000     0.755110000000     0.0343099  
C129     C      0.241990000000     0.770070000000     0.705960000000     0.039888   
C130     C      0.263250000000     0.715710000000     0.823610000000     0.0732596  
C131     C      0.296010000000     0.759780000000     0.826700000000     0.0746933  
C132     C      0.281770000000     0.772490000000     0.780380000000    -0.0859513  
C133     C      0.302840000000     0.730000000000     0.173500000000     0.0989322  
C134     C      0.271670000000     0.759400000000     0.111810000000     0.0725315  
C135     C      0.288460000000     0.744520000000     0.218010000000    -0.0953565  
C136     C      0.266090000000     0.792020000000     0.301610000000    -0.0861006  
C137     C      0.257050000000     0.773900000000     0.155450000000    -0.0886192  
C138     C      0.249510000000     0.781270000000     0.256210000000     0.0344214  
C139     C      0.265270000000     0.766450000000     0.209250000000     0.0399417  
C140     C      0.250790000000     0.805240000000     0.345930000000     0.0744857  
C141     C      0.203070000000     0.797490000000     0.301520000000     0.0737555  
C142     C      0.217650000000     0.784370000000     0.256350000000    -0.085829   
C143     C      0.439760000000     0.721560000000     0.019210000000     0.0985759  
C144     C      0.435300000000     0.708320000000     0.924880000000     0.07403    
C145     C      0.471750000000     0.721780000000     0.014340000000    -0.0948345  
C146     C      0.539000000000     0.732050000000     0.988590000000    -0.085481   
C147     C      0.466940000000     0.708670000000     0.919190000000    -0.0887807  
C148     C      0.519440000000     0.711680000000     0.960380000000     0.0341745  
C149     C      0.485640000000     0.714600000000     0.964450000000     0.0400065  
C150     C      0.570580000000     0.727200000000     0.987600000000     0.0733497  
C151     C      0.564060000000     0.683250000000     0.929950000000     0.0738763  
C152     C      0.532450000000     0.687360000000     0.930140000000    -0.085473   
C153     C      0.203220000000     0.263060000000     0.647380000000     0.099436   
C154     C      0.239390000000     0.221590000000     0.643640000000     0.0728284  
C155     C      0.219260000000     0.275970000000     0.691790000000    -0.0955369  
C156     C      0.266930000000     0.307740000000     0.762550000000    -0.0856838  
C157     C      0.255540000000     0.234040000000     0.687830000000    -0.0885835  
C158     C      0.262510000000     0.275390000000     0.759260000000     0.0342528  
C159     C      0.245670000000     0.261630000000     0.712200000000     0.0402952  
C160     C      0.281460000000     0.320520000000     0.808280000000     0.0738921  
C161     C      0.288030000000     0.270050000000     0.847150000000     0.0737623  
C162     C      0.273620000000     0.256470000000     0.801940000000    -0.0855531  
C163     C      0.228930000000     0.268760000000     0.362770000000     0.0982367  
C164     C      0.211270000000     0.226400000000     0.308230000000     0.0730924  
C165     C      0.242880000000     0.281990000000     0.316400000000    -0.0955514  
C166     C      0.285750000000     0.293040000000     0.220250000000    -0.0857051  
C167     C      0.224800000000     0.239320000000     0.261750000000    -0.0885712  
C168     C      0.256020000000     0.281060000000     0.216660000000     0.0341643  
C169     C      0.240970000000     0.267290000000     0.265540000000     0.0400809  
C170     C      0.299700000000     0.305660000000     0.173780000000     0.0734948  
C171     C      0.255400000000     0.295280000000     0.120470000000     0.0734773  
C172     C      0.240850000000     0.282300000000     0.166020000000    -0.0857562  
C173     C      0.433000000000     0.296100000000     0.987390000000     0.0989088  
C174     C      0.434910000000     0.345400000000     0.942040000000     0.0733838  
C175     C      0.464910000000     0.293450000000     0.982690000000    -0.0951151  
C176     C      0.533090000000     0.302990000000     0.999040000000    -0.0854934  
C177     C      0.466520000000     0.343280000000     0.937320000000    -0.0885692  
C178     C      0.515980000000     0.315510000000     0.955380000000     0.034251   
C179     C      0.482030000000     0.317290000000     0.958190000000     0.0399307  
C180     C      0.564990000000     0.303380000000     0.997200000000     0.0735812  
C181     C      0.563600000000     0.327750000000     0.909720000000     0.074169   
C182     C      0.531720000000     0.327450000000     0.909930000000    -0.0858738  
C183     C      0.290570000000     0.452090000000     0.984320000000     0.09864    
C184     C      0.340440000000     0.451880000000     0.023700000000     0.0731569  
C185     C      0.290950000000     0.484950000000     0.983460000000    -0.0952575  
C186     C      0.293250000000     0.554670000000     0.011960000000    -0.0854979  
C187     C      0.341240000000     0.484380000000     0.023080000000    -0.0888663  
C188     C      0.318200000000     0.535920000000     0.997710000000     0.0340298  
C189     C      0.316630000000     0.501320000000     0.001840000000     0.0401889  
C190     C      0.295520000000     0.587200000000     0.007990000000     0.0738798  
C191     C      0.346270000000     0.582960000000     0.975290000000     0.0734916  
C192     C      0.344860000000     0.550480000000     0.979050000000    -0.0858082  
H1       H      0.141430000000     0.094970000000     0.542070000000     0.0308545  
H2       H      0.203120000000     0.940950000000     0.415540000000     0.0314603  
H3       H      0.229260000000     0.043370000000     0.454560000000     0.0533129  
H4       H      0.204390000000     0.997210000000     0.416290000000     0.0541257  
H5       H      0.144460000000     0.038560000000     0.543740000000     0.0536493  
H6       H      0.174420000000     0.996990000000     0.583620000000     0.0573828  
H7       H      0.225110000000     0.100110000000     0.452750000000     0.0307141  
H8       H      0.082820000000     0.788740000000     0.524870000000     0.0311059  
H9       H      0.923850000000     0.832180000000     0.391870000000     0.0325073  
H10      H      0.020430000000     0.864770000000     0.420680000000     0.0533658  
H11      H      0.978700000000     0.833180000000     0.388400000000     0.0541813  
H12      H      0.027600000000     0.782980000000     0.524240000000     0.0536817  
H13      H      0.983350000000     0.808530000000     0.559120000000     0.0573021  
H14      H      0.075630000000     0.869220000000     0.421040000000     0.030765   
H15      H      0.824960000000     0.081790000000     0.376610000000     0.0319413  
H16      H      0.841790000000     0.926390000000     0.543530000000     0.0318712  
H17      H      0.808560000000     0.027330000000     0.552800000000     0.0532651  
H18      H      0.840890000000     0.982480000000     0.542990000000     0.0541537  
H19      H      0.823450000000     0.025230000000     0.378000000000     0.0534051  
H20      H      0.790030000000     0.982010000000     0.391940000000     0.057259   
H21      H      0.811160000000     0.084000000000     0.549970000000     0.0314663  
H22      H      0.078750000000     0.210150000000     0.392360000000     0.030354   
H23      H      0.925520000000     0.164130000000     0.528080000000     0.0314374  
H24      H      0.019570000000     0.206730000000     0.563970000000     0.0540967  
H25      H      0.980060000000     0.169210000000     0.533590000000     0.0545707  
H26      H      0.023210000000     0.210330000000     0.387320000000     0.0537686  
H27      H      0.977670000000     0.241840000000     0.411710000000     0.0577564  
H28      H      0.074970000000     0.206340000000     0.567450000000     0.0326186  
H29      H      0.708330000000     0.677830000000     0.791130000000     0.032012   
H30      H      0.758860000000     0.824630000000     0.620400000000     0.0324348  
H31      H      0.740300000000     0.788350000000     0.792780000000     0.0536083  
H32      H      0.732070000000     0.803380000000     0.697860000000     0.054208   
H33      H      0.733090000000     0.699530000000     0.710790000000     0.0537491  
H34      H      0.782810000000     0.717980000000     0.684350000000     0.0578157  
H35      H      0.714770000000     0.765990000000     0.872000000000     0.0309574  
H36      H      0.742310000000     0.801210000000     0.361410000000     0.0316688  
H37      H      0.755190000000     0.721720000000     0.075810000000     0.0327637  
H38      H      0.802490000000     0.731100000000     0.243770000000     0.0536996  
H39      H      0.780410000000     0.744160000000     0.154070000000     0.0546469  
H40      H      0.717420000000     0.776190000000     0.284170000000     0.0541779  
H41      H      0.701910000000     0.724620000000     0.253240000000     0.0574701  
H42      H      0.826790000000     0.756960000000     0.321080000000     0.031533   
H43      H      0.759500000000     0.304750000000     0.847120000000     0.0307838  
H44      H      0.755050000000     0.188420000000     0.599500000000     0.0332956  
H45      H      0.697330000000     0.250620000000     0.707560000000     0.0534468  
H46      H      0.730750000000     0.209740000000     0.678980000000     0.054134   
H47      H      0.784680000000     0.282990000000     0.767510000000     0.0535474  
H48      H      0.789130000000     0.290230000000     0.670710000000     0.0574448  
H49      H      0.673160000000     0.271810000000     0.788460000000     0.0314356  
H50      H      0.704200000000     0.236410000000     0.060080000000     0.0302278  
H51      H      0.755420000000     0.243990000000     0.366370000000     0.0315138  
H52      H      0.747800000000     0.301320000000     0.207750000000     0.0543997  
H53      H      0.730360000000     0.267130000000     0.287850000000     0.0548225  
H54      H      0.727650000000     0.210910000000     0.139340000000     0.0538492  
H55      H      0.780780000000     0.207140000000     0.180870000000     0.0577709  
H56      H      0.724480000000     0.326000000000     0.128030000000     0.0317345  
H57      H      0.705440000000     0.426570000000     0.894850000000     0.0308441  
H58      H      0.638030000000     0.580750000000     0.012630000000     0.0333385  
H59      H      0.659000000000     0.479150000000     0.053540000000     0.0535725  
H60      H      0.637850000000     0.524790000000     0.009460000000     0.0544288  
H61      H      0.708340000000     0.483180000000     0.900920000000     0.0539083  
H62      H      0.730890000000     0.525110000000     0.954540000000     0.0575849  
H63      H      0.655940000000     0.422860000000     0.045440000000     0.0315499  
H64      H      0.255440000000     0.693460000000     0.839710000000     0.0305937  
H65      H      0.219250000000     0.839740000000     0.654990000000     0.0336473  
H66      H      0.290000000000     0.794510000000     0.764180000000     0.053593   
H67      H      0.242870000000     0.817650000000     0.735180000000     0.0542773  
H68      H      0.229510000000     0.714900000000     0.759630000000     0.0534919  
H69      H      0.237110000000     0.726180000000     0.664440000000     0.0572914  
H70      H      0.314670000000     0.772830000000     0.844960000000     0.031464   
H71      H      0.264400000000     0.813200000000     0.380410000000     0.0306391  
H72      H      0.264170000000     0.766070000000     0.070940000000     0.0315683  
H73      H      0.203970000000     0.776120000000     0.222240000000     0.0537856  
H74      H      0.239460000000     0.791080000000     0.146930000000     0.0544141  
H75      H      0.290780000000     0.790410000000     0.302810000000     0.0540173  
H76      H      0.295000000000     0.738470000000     0.259740000000     0.0577573  
H77      H      0.178360000000     0.799150000000     0.300370000000     0.0306042  
H78      H      0.584950000000     0.743090000000     0.010700000000     0.03153    
H79      H      0.422070000000     0.702850000000     0.888450000000     0.0328895  
H80      H      0.518270000000     0.670830000000     0.908180000000     0.0536783  
H81      H      0.476690000000     0.703820000000     0.879400000000     0.0541224  
H82      H      0.530000000000     0.751480000000     0.011690000000     0.0534981  
H83      H      0.485930000000     0.726640000000     0.049930000000     0.0576155  
H84      H      0.573120000000     0.663740000000     0.907000000000     0.0316453  
H85      H      0.284170000000     0.345680000000     0.809550000000     0.0326483  
H86      H      0.248330000000     0.200260000000     0.626090000000     0.031557   
H87      H      0.270500000000     0.231370000000     0.801200000000     0.0535489  
H88      H      0.275990000000     0.222280000000     0.702250000000     0.0541799  
H89      H      0.259180000000     0.323160000000     0.730000000000     0.0542875  
H90      H      0.210940000000     0.297060000000     0.711250000000     0.0580463  
H91      H      0.295880000000     0.254700000000     0.879810000000     0.0312126  
H92      H      0.322810000000     0.314490000000     0.178050000000     0.0314331  
H93      H      0.199180000000     0.204510000000     0.302780000000     0.0328082  
H94      H      0.217730000000     0.273590000000     0.161690000000     0.0538507  
H95      H      0.223000000000     0.227070000000     0.223110000000     0.0546872  
H96      H      0.298380000000     0.292240000000     0.258540000000     0.0539944  
H97      H      0.255070000000     0.304010000000     0.319630000000     0.0575599  
H98      H      0.242910000000     0.295850000000     0.081970000000     0.0312061  
H99      H      0.577400000000     0.294010000000     0.032200000000     0.0309515  
H100     H      0.424340000000     0.366440000000     0.925810000000     0.0322563  
H101     H      0.519530000000     0.336720000000     0.874690000000     0.0531832  
H102     H      0.478760000000     0.362510000000     0.918570000000     0.0539686  
H103     H      0.522020000000     0.293800000000     0.035290000000     0.0537661  
H104     H      0.476480000000     0.272620000000     0.997610000000     0.0571863  
H105     H      0.574890000000     0.337650000000     0.874170000000     0.0310676  
H106     H      0.275870000000     0.601000000000     0.019800000000     0.0306994  
H107     H      0.360520000000     0.440080000000     0.039830000000     0.0326308  
H108     H      0.364510000000     0.536850000000     0.966800000000     0.0537996  
H109     H      0.361290000000     0.496200000000     0.038930000000     0.0545281  
H110     H      0.272280000000     0.544330000000     0.026910000000     0.0536415  
H111     H      0.271500000000     0.497870000000     0.967370000000     0.0576986  
H112     H      0.367350000000     0.593290000000     0.960650000000     0.030892   
In1      In     0.327070000000     0.340980000000     0.988410000000     2.41916    
In2      In     0.329710000000     0.696060000000     0.983150000000     2.40963    
In3      In     0.672550000000     0.326180000000     0.957470000000     2.41214    
In4      In     0.673180000000     0.681230000000     0.974530000000     2.41802    
In5      In     0.827080000000     0.181690000000     0.459420000000     2.41067    
In6      In     0.827520000000     0.825740000000     0.474040000000     2.42312    
In7      In     0.175540000000     0.841430000000     0.480100000000     2.41176    
In8      In     0.172990000000     0.196140000000     0.488740000000     2.41451    
N1       N      0.186790000000     0.935700000000     0.498110000000    -0.195496   
N2       N      0.182990000000     0.101540000000     0.497160000000    -0.194857   
N3       N      0.920920000000     0.819760000000     0.477310000000    -0.195432   
N4       N      0.083120000000     0.829450000000     0.473270000000    -0.195052   
N5       N      0.817370000000     0.920820000000     0.467370000000    -0.196375   
N6       N      0.818360000000     0.086890000000     0.463200000000    -0.193684   
N7       N      0.919030000000     0.199600000000     0.466170000000    -0.197133   
N8       N      0.080760000000     0.207780000000     0.480150000000    -0.194018   
N9       N      0.786380000000     0.783870000000     0.605710000000    -0.19604    
N10      N      0.709970000000     0.720310000000     0.837350000000    -0.194242   
N11      N      0.713300000000     0.710600000000     0.117450000000    -0.195843   
N12      N      0.786310000000     0.780930000000     0.346630000000    -0.194012   
N13      N      0.787010000000     0.226120000000     0.588520000000    -0.194736   
N14      N      0.714590000000     0.289800000000     0.823490000000    -0.194072   
N15      N      0.783370000000     0.212310000000     0.320250000000    -0.195626   
N16      N      0.712690000000     0.282960000000     0.088460000000    -0.194687   
N17      N      0.684150000000     0.586410000000     0.983910000000    -0.195614   
N18      N      0.680310000000     0.420750000000     0.969430000000    -0.194561   
N19      N      0.213770000000     0.796240000000     0.612110000000    -0.195203   
N20      N      0.286810000000     0.731640000000     0.848080000000    -0.194156   
N21      N      0.294100000000     0.737300000000     0.120010000000    -0.195983   
N22      N      0.219530000000     0.807650000000     0.346020000000    -0.19506    
N23      N      0.421510000000     0.713570000000     0.974580000000    -0.195259   
N24      N      0.582880000000     0.702610000000     0.959400000000    -0.193916   
N25      N      0.213560000000     0.235780000000     0.622830000000    -0.19519    
N26      N      0.291510000000     0.301830000000     0.850510000000    -0.193627   
N27      N      0.213150000000     0.240630000000     0.358620000000    -0.195627   
N28      N      0.284630000000     0.306690000000     0.124350000000    -0.194739   
N29      N      0.418050000000     0.322600000000     0.967840000000    -0.195941   
N30      N      0.580050000000     0.316250000000     0.953380000000    -0.194543   
N31      N      0.315930000000     0.435510000000     0.003030000000    -0.195188   
N32      N      0.321860000000     0.601140000000     0.989930000000    -0.195149   
O1       O      0.285810000000     0.320500000000     0.032790000000    -0.506529   
O2       O      0.325970000000     0.328490000000     0.079720000000    -0.501386   
O3       O      0.307250000000     0.344070000000     0.901930000000    -0.495488   
O4       O      0.299630000000     0.385980000000     0.976390000000    -0.492692   
O5       O      0.369850000000     0.311350000000     0.003100000000    -0.49661    
O6       O      0.341660000000     0.388980000000     0.018990000000    -0.503188   
O7       O      0.313200000000     0.298890000000     0.936910000000    -0.50199    
O8       O      0.373830000000     0.351050000000     0.951800000000    -0.506607   
O9       O      0.294150000000     0.693450000000     0.914250000000    -0.503325   
O10      O      0.322370000000     0.733800000000     0.918220000000    -0.498554   
O11      O      0.324730000000     0.700770000000     0.075900000000    -0.495243   
O12      O      0.302810000000     0.651110000000     0.001210000000    -0.497596   
O13      O      0.374490000000     0.700950000000     0.936450000000    -0.494702   
O14      O      0.347780000000     0.646720000000     0.970350000000    -0.508095   
O15      O      0.299740000000     0.732160000000     0.025970000000    -0.506601   
O16      O      0.375120000000     0.711310000000     0.021030000000    -0.496747   
O17      O      0.686290000000     0.282320000000     0.006040000000    -0.500495   
O18      O      0.699150000000     0.326500000000     0.037870000000    -0.504373   
O19      O      0.672290000000     0.299100000000     0.877190000000    -0.502225   
O20      O      0.625940000000     0.332390000000     0.916620000000    -0.501556   
O21      O      0.663920000000     0.372540000000     0.999860000000    -0.502199   
O22      O      0.627570000000     0.307960000000     0.992600000000    -0.501739   
O23      O      0.714840000000     0.317010000000     0.905160000000    -0.50005    
O24      O      0.689300000000     0.373760000000     0.925950000000    -0.4976     
O25      O      0.713800000000     0.699260000000     0.024510000000    -0.503192   
O26      O      0.672510000000     0.690960000000     0.066410000000    -0.500759   
O27      O      0.689600000000     0.679020000000     0.886130000000    -0.500981   
O28      O      0.701540000000     0.636760000000     0.964680000000    -0.496071   
O29      O      0.631810000000     0.712540000000     0.991000000000    -0.496716   
O30      O      0.657300000000     0.632310000000     0.997880000000    -0.502164   
O31      O      0.691780000000     0.722930000000     0.926030000000    -0.502039   
O32      O      0.625620000000     0.673470000000     0.938840000000    -0.502012   
O33      O      0.789150000000     0.208680000000     0.414670000000    -0.504008   
O34      O      0.821380000000     0.184660000000     0.366570000000    -0.489135   
O35      O      0.790150000000     0.186360000000     0.524430000000    -0.493706   
O36      O      0.819350000000     0.135310000000     0.504680000000    -0.490289   
O37      O      0.869580000000     0.209260000000     0.434320000000    -0.500849   
O38      O      0.824720000000     0.134000000000     0.418360000000    -0.499346   
O39      O      0.824070000000     0.221570000000     0.520640000000    -0.502808   
O40      O      0.875270000000     0.173020000000     0.492320000000    -0.512802   
O41      O      0.828150000000     0.792210000000     0.401300000000    -0.498016   
O42      O      0.786130000000     0.814250000000     0.420760000000    -0.502473   
O43      O      0.819510000000     0.784220000000     0.531150000000    -0.502624   
O44      O      0.872810000000     0.815840000000     0.517300000000    -0.500008   
O45      O      0.812760000000     0.870810000000     0.431030000000    -0.501325   
O46      O      0.874430000000     0.828440000000     0.433520000000    -0.501417   
O47      O      0.794940000000     0.825640000000     0.546820000000    -0.504609   
O48      O      0.831820000000     0.874650000000     0.510370000000    -0.504152   
O49      O      0.189990000000     0.797080000000     0.526210000000    -0.494811   
O50      O      0.198270000000     0.840460000000     0.564320000000    -0.498269   
O51      O      0.176050000000     0.821100000000     0.393700000000    -0.507664   
O52      O      0.131530000000     0.815430000000     0.502730000000    -0.501008   
O53      O      0.170410000000     0.886720000000     0.527300000000    -0.494939   
O54      O      0.127830000000     0.854540000000     0.449400000000    -0.504705   
O55      O      0.218810000000     0.829570000000     0.432380000000    -0.502971   
O56      O      0.192960000000     0.889150000000     0.450910000000    -0.500387   
O57      O      0.198470000000     0.236910000000     0.450010000000    -0.505908   
O58      O      0.186360000000     0.199510000000     0.398190000000    -0.494698   
O59      O      0.176530000000     0.233480000000     0.554100000000    -0.494132   
O60      O      0.126240000000     0.202560000000     0.527460000000    -0.493953   
O61      O      0.199410000000     0.150870000000     0.471440000000    -0.495982   
O62      O      0.128500000000     0.203960000000     0.440550000000    -0.502179   
O63      O      0.209250000000     0.197160000000     0.556670000000    -0.505111   
O64      O      0.157990000000     0.147620000000     0.515870000000    -0.511109   
S1       S      0.171380000000     0.934770000000     0.602120000000     0.00148466 
S2       S      0.923210000000     0.802780000000     0.581080000000     0.00178065 
S3       S      0.785120000000     0.919780000000     0.376160000000     0.000198751
S4       S      0.916770000000     0.244310000000     0.391900000000     0.000276284
S5       S      0.817910000000     0.731840000000     0.596820000000     0.00102982 
S6       S      0.665490000000     0.696990000000     0.177920000000    -0.000273013
S7       S      0.822530000000     0.275510000000     0.581660000000    -0.000660565
S8       S      0.812850000000     0.173590000000     0.256070000000     0.00301002 
S9       S      0.741600000000     0.587420000000     0.953150000000    -0.000337277
S10      S      0.209450000000     0.740480000000     0.568130000000    -0.000784834
S11      S      0.329640000000     0.706110000000     0.188170000000     0.00218026 
S12      S      0.426320000000     0.730920000000     0.077480000000     0.000437554
S13      S      0.173060000000     0.281120000000     0.628440000000     0.00435451 
S14      S      0.232730000000     0.287540000000     0.418680000000     6.50408e-05
S15      S      0.415570000000     0.267020000000     0.013720000000    -0.000689098
S16      S      0.259800000000     0.435710000000     0.964310000000     0.000206881


