data_structure

_audit_creation_method RASPA-1.0
_audit_creation_date 2023-6-5
_audit_author_name 'Poobodin Mano'

_cell_length_a    43.4443
_cell_length_b    43.8513
_cell_length_c    24.0381
_cell_angle_alpha 89.697
_cell_angle_beta  90.303
_cell_angle_gamma 89.9995
_cell_volume      45793.4

_symmetry_cell_setting          triclinic
_symmetry_space_group_name_Hall 'P 1'
_symmetry_space_group_name_H-M  'P 1'
_symmetry_Int_Tables_number     1

_symmetry_equiv_pos_as_xyz 'x,y,z'

loop_
_atom_site_label
_atom_site_type_symbol
_atom_site_fract_x
_atom_site_fract_y
_atom_site_fract_z
_atom_site_charge
C1       C      0.330710000000     0.388030000000     0.005170000000     0.418953   
C2       C      0.315690000000     0.299450000000     0.898550000000     0.418836   
C3       C      0.398110000000     0.315730000000     0.980520000000     0.41145    
C4       C      0.307100000000     0.302830000000     0.080650000000     0.411656   
C5       C      0.323650000000     0.612080000000     0.988810000000     0.415055   
C6       C      0.300910000000     0.703060000000     0.064530000000     0.417415   
C7       C      0.390070000000     0.679620000000     0.975280000000     0.416781   
C8       C      0.299870000000     0.698620000000     0.888820000000     0.414404   
C9       C      0.623970000000     0.323940000000     0.988490000000     0.419049   
C10      C      0.717040000000     0.304300000000     0.909870000000     0.424175   
C11      C      0.697070000000     0.389520000000     0.002160000000     0.416444   
C12      C      0.708060000000     0.302690000000     0.091170000000     0.412977   
C13      C      0.691510000000     0.613000000000     0.992570000000     0.41673    
C14      C      0.699020000000     0.701510000000     0.884980000000     0.417643   
C15      C      0.616410000000     0.679310000000     0.965920000000     0.411054   
C16      C      0.704490000000     0.695820000000     0.070410000000     0.411909   
C17      C      0.824180000000     0.114700000000     0.492540000000     0.420953   
C18      C      0.813420000000     0.205080000000     0.589060000000     0.413144   
C19      C      0.898140000000     0.181240000000     0.502750000000     0.413551   
C20      C      0.807620000000     0.201640000000     0.411380000000     0.41258    
C21      C      0.885710000000     0.822400000000     0.474290000000     0.417309   
C22      C      0.794900000000     0.805300000000     0.566200000000     0.412734   
C23      C      0.814700000000     0.891290000000     0.479770000000     0.414062   
C24      C      0.798200000000     0.802080000000     0.388500000000     0.418084   
C25      C      0.112170000000     0.821490000000     0.475570000000     0.413016   
C26      C      0.203080000000     0.797990000000     0.389620000000     0.414803   
C27      C      0.180600000000     0.886790000000     0.476740000000     0.414352   
C28      C      0.201080000000     0.794810000000     0.562150000000     0.412784   
C29      C      0.124630000000     0.178530000000     0.492550000000     0.414577   
C30      C      0.215930000000     0.199190000000     0.579290000000     0.414835   
C31      C      0.190390000000     0.111110000000     0.493260000000     0.414443   
C32      C      0.211830000000     0.201180000000     0.403270000000     0.412782   
C33      C      0.183290000000     0.935730000000     0.429520000000     0.0878283  
C34      C      0.186170000000     0.932260000000     0.528110000000     0.0733267  
C35      C      0.185540000000     0.967590000000     0.432660000000    -0.0880653  
C36      C      0.205580000000     0.033120000000     0.447500000000    -0.0852171  
C37      C      0.188770000000     0.963880000000     0.532220000000    -0.08599    
C38      C      0.189990000000     0.015960000000     0.487920000000     0.036126   
C39      C      0.188280000000     0.982060000000     0.484250000000     0.0380752  
C40      C      0.205760000000     0.064930000000     0.450250000000     0.0748362  
C41      C      0.176420000000     0.063420000000     0.533070000000     0.0748834  
C42      C      0.175490000000     0.031590000000     0.531300000000    -0.0854332  
C43      C      0.180150000000     0.922920000000     0.374380000000     0.0505063  
C44      C      0.932920000000     0.797400000000     0.504000000000     0.0881816  
C45      C      0.933880000000     0.840400000000     0.443360000000     0.0736306  
C46      C      0.965230000000     0.796510000000     0.503980000000    -0.0882872  
C47      C      0.032720000000     0.813140000000     0.523350000000    -0.08493    
C48      C      0.965930000000     0.839880000000     0.442530000000    -0.0867391  
C49      C      0.016240000000     0.817750000000     0.473750000000     0.0363552  
C50      C      0.982030000000     0.817930000000     0.473300000000     0.0385928  
C51      C      0.064880000000     0.814300000000     0.523230000000     0.0752868  
C52      C      0.064820000000     0.823900000000     0.426040000000     0.075386   
C53      C      0.032720000000     0.822980000000     0.424680000000    -0.0853053  
C54      C      0.917420000000     0.774320000000     0.536760000000     0.0513698  
C55      C      0.797180000000     0.068910000000     0.521630000000     0.0887597  
C56      C      0.837490000000     0.066870000000     0.455210000000     0.0744097  
C57      C      0.794120000000     0.037080000000     0.519210000000    -0.0884747  
C58      C      0.808460000000     0.969190000000     0.532240000000    -0.0852808  
C59      C      0.834750000000     0.035290000000     0.451900000000    -0.0868345  
C60      C      0.811050000000     0.986190000000     0.482970000000     0.0365672  
C61      C      0.813100000000     0.019970000000     0.484420000000     0.0387219  
C62      C      0.809000000000     0.937350000000     0.530360000000     0.0747486  
C63      C      0.813420000000     0.938780000000     0.432080000000     0.0765859  
C64      C      0.813060000000     0.970590000000     0.432440000000    -0.0857392  
C65      C      0.776560000000     0.084780000000     0.558700000000     0.0513536  
C66      C      0.947040000000     0.178660000000     0.551670000000     0.0876397  
C67      C      0.944760000000     0.188690000000     0.454450000000     0.0738759  
C68      C      0.979290000000     0.179150000000     0.549770000000    -0.0881925  
C69      C      0.046730000000     0.195740000000     0.540130000000    -0.0853628  
C70      C      0.976800000000     0.189500000000     0.451630000000    -0.0861212  
C71      C      0.028770000000     0.183840000000     0.496750000000     0.0363989  
C72      C      0.994540000000     0.184370000000     0.499450000000     0.0382776  
C73      C      0.078790000000     0.193960000000     0.537850000000     0.0754807  
C74      C      0.075970000000     0.169610000000     0.450140000000     0.0754496  
C75      C      0.043860000000     0.170810000000     0.451230000000    -0.0855336  
C76      C      0.933350000000     0.172980000000     0.605540000000     0.0501275  
C77      C      0.712370000000     0.702090000000     0.787150000000     0.0891896  
C78      C      0.721840000000     0.745130000000     0.844540000000     0.0745346  
C79      C      0.725530000000     0.717450000000     0.741830000000    -0.0879778  
C80      C      0.738780000000     0.762080000000     0.647510000000    -0.0852066  
C81      C      0.735200000000     0.760770000000     0.800160000000    -0.0864331  
C82      C      0.751990000000     0.763000000000     0.700740000000     0.0369586  
C83      C      0.737290000000     0.746920000000     0.748160000000     0.0391431  
C84      C      0.753280000000     0.776710000000     0.603100000000     0.0756496  
C85      C      0.793580000000     0.793260000000     0.662660000000     0.0769037  
C86      C      0.779600000000     0.779030000000     0.708100000000    -0.084903   
C87      C      0.700790000000     0.671680000000     0.776710000000     0.0532591  
C88      C      0.757960000000     0.797800000000     0.318790000000     0.0895024  
C89      C      0.798490000000     0.761440000000     0.324280000000     0.0742345  
C90      C      0.744800000000     0.781750000000     0.274400000000    -0.0888415  
C91      C      0.712640000000     0.734180000000     0.204280000000    -0.0853819  
C92      C      0.785830000000     0.745120000000     0.280040000000    -0.0863029  
C93      C      0.744600000000     0.738120000000     0.207680000000     0.0364049  
C94      C      0.758590000000     0.755120000000     0.254760000000     0.0389657  
C95      C      0.699650000000     0.719470000000     0.158490000000     0.0753822  
C96      C      0.749140000000     0.711770000000     0.119810000000     0.0752013  
C97      C      0.762910000000     0.726350000000     0.165070000000    -0.0851381  
C98      C      0.742150000000     0.825280000000     0.335760000000     0.0529014  
C99      C      0.762940000000     0.282570000000     0.868940000000     0.0892998  
C100     C      0.716230000000     0.286540000000     0.817350000000     0.0751393  
C101     C      0.777190000000     0.268770000000     0.823280000000    -0.0888177  
C102     C      0.792780000000     0.222410000000     0.732810000000    -0.0845794  
C103     C      0.730000000000     0.273200000000     0.771260000000    -0.0868164  
C104     C      0.775380000000     0.249040000000     0.725700000000     0.0367224  
C105     C      0.760720000000     0.263980000000     0.773990000000     0.03933    
C106     C      0.805480000000     0.208020000000     0.686590000000     0.0771373  
C107     C      0.784890000000     0.246180000000     0.626760000000     0.07532    
C108     C      0.771580000000     0.260960000000     0.671960000000    -0.0852176  
C109     C      0.781660000000     0.286430000000     0.918420000000     0.0504001  
C110     C      0.733550000000     0.306120000000     0.180760000000     0.0890504  
C111     C      0.719950000000     0.258040000000     0.142500000000     0.0750901  
C112     C      0.747310000000     0.291440000000     0.226420000000    -0.0880968  
C113     C      0.791580000000     0.255180000000     0.297860000000    -0.0855068  
C114     C      0.733580000000     0.242920000000     0.187540000000    -0.0857171  
C115     C      0.763590000000     0.243990000000     0.277110000000     0.0368094  
C116     C      0.747840000000     0.259590000000     0.229840000000     0.0389329  
C117     C      0.806010000000     0.240650000000     0.342680000000     0.0765684  
C118     C      0.766030000000     0.203900000000     0.346790000000     0.0751495  
C119     C      0.750910000000     0.217920000000     0.302010000000    -0.0853253  
C120     C      0.733710000000     0.339150000000     0.181390000000     0.0534376  
C121     C      0.721010000000     0.567460000000     0.972190000000     0.0896531  
C122     C      0.676170000000     0.565210000000     0.028290000000     0.0759659  
C123     C      0.723880000000     0.535620000000     0.975580000000    -0.0875733  
C124     C      0.712350000000     0.468030000000     0.958250000000    -0.0842244  
C125     C      0.678390000000     0.533580000000     0.031850000000    -0.0858398  
C126     C      0.703590000000     0.484330000000     0.005670000000     0.0382963  
C127     C      0.702200000000     0.518270000000     0.004830000000     0.0397636  
C128     C      0.711000000000     0.436190000000     0.958360000000     0.0785923  
C129     C      0.693230000000     0.436070000000     0.051430000000     0.0798068  
C130     C      0.694630000000     0.467840000000     0.053010000000    -0.0844969  
C131     C      0.744600000000     0.583590000000     0.941550000000     0.0535515  
C132     C      0.206470000000     0.750510000000     0.622420000000     0.0880938  
C133     C      0.236220000000     0.795230000000     0.637400000000     0.0740766  
C134     C      0.220460000000     0.736620000000     0.668850000000    -0.0880214  
C135     C      0.240770000000     0.719440000000     0.786250000000    -0.0849246  
C136     C      0.250330000000     0.781960000000     0.683770000000    -0.0861085  
C137     C      0.257580000000     0.737880000000     0.749490000000     0.0364379  
C138     C      0.242560000000     0.752320000000     0.700130000000     0.0385204  
C139     C      0.255280000000     0.706370000000     0.832640000000     0.0751383  
C140     C      0.302640000000     0.729310000000     0.807380000000     0.0755359  
C141     C      0.288930000000     0.742610000000     0.760550000000    -0.0851045  
C142     C      0.184120000000     0.732400000000     0.592290000000     0.0509204  
C143     C      0.292540000000     0.748050000000     0.120850000000     0.0894658  
C144     C      0.269010000000     0.700700000000     0.143640000000     0.0750466  
C145     C      0.278770000000     0.761510000000     0.167360000000    -0.0875278  
C146     C      0.260880000000     0.779810000000     0.284590000000    -0.0846786  
C147     C      0.255220000000     0.713530000000     0.190210000000    -0.0859818  
C148     C      0.245170000000     0.758300000000     0.252110000000     0.037004   
C149     C      0.259960000000     0.744280000000     0.202680000000     0.0391046  
C150     C      0.246500000000     0.792800000000     0.330640000000     0.0763559  
C151     C      0.201530000000     0.763590000000     0.313750000000     0.0763531  
C152     C      0.215130000000     0.750270000000     0.267330000000    -0.0848306  
C153     C      0.311400000000     0.767700000000     0.086490000000     0.0533949  
C154     C      0.438930000000     0.694530000000     0.016250000000     0.0888615  
C155     C      0.436510000000     0.671760000000     0.926810000000     0.0747943  
C156     C      0.471150000000     0.695550000000     0.012930000000    -0.087639   
C157     C      0.538080000000     0.708060000000     0.984660000000    -0.0850495  
C158     C      0.468480000000     0.672680000000     0.922470000000    -0.0862697  
C159     C      0.520510000000     0.683940000000     0.963280000000     0.0364512  
C160     C      0.486290000000     0.684350000000     0.966000000000     0.0386407  
C161     C      0.570200000000     0.706440000000     0.984230000000     0.0747724  
C162     C      0.568100000000     0.658110000000     0.940620000000     0.0754184  
C163     C      0.535990000000     0.658920000000     0.940560000000    -0.0849762  
C164     C      0.425340000000     0.706500000000     0.066480000000     0.0531124  
C165     C      0.297250000000     0.301860000000     0.803320000000     0.0895476  
C166     C      0.297450000000     0.255060000000     0.853700000000     0.0750737  
C167     C      0.283630000000     0.287260000000     0.757700000000    -0.0883582  
C168     C      0.237490000000     0.256300000000     0.682630000000    -0.0853062  
C169     C      0.283740000000     0.240070000000     0.808870000000    -0.0857674  
C170     C      0.260510000000     0.241010000000     0.712860000000     0.0362885  
C171     C      0.276300000000     0.256210000000     0.760330000000     0.038919   
C172     C      0.222900000000     0.241950000000     0.638050000000     0.0751286  
C173     C      0.252930000000     0.197430000000     0.652560000000     0.0741905  
C174     C      0.268120000000     0.211170000000     0.697330000000    -0.0851351  
C175     C      0.304370000000     0.333910000000     0.796300000000     0.0527291  
C176     C      0.261200000000     0.282790000000     0.124890000000     0.0877771  
C177     C      0.309440000000     0.282930000000     0.172030000000     0.0733192  
C178     C      0.247550000000     0.268490000000     0.170940000000    -0.0879772  
C179     C      0.221230000000     0.252760000000     0.284360000000    -0.0851969  
C180     C      0.296350000000     0.268860000000     0.218350000000    -0.0858039  
C181     C      0.251050000000     0.245470000000     0.266830000000     0.0361927  
C182     C      0.265120000000     0.261220000000     0.218170000000     0.0381705  
C183     C      0.208410000000     0.237640000000     0.330010000000     0.0745344  
C184     C      0.253860000000     0.208330000000     0.341780000000     0.0744405  
C185     C      0.267320000000     0.222880000000     0.296180000000    -0.0852793  
C186     C      0.241290000000     0.289140000000     0.077730000000     0.0505142  
C187     C      0.574370000000     0.344990000000     0.962550000000     0.0888768  
C188     C      0.578410000000     0.295390000000     0.002400000000     0.0735408  
C189     C      0.542340000000     0.341820000000     0.959400000000    -0.0883776  
C190     C      0.477010000000     0.324550000000     0.931270000000    -0.0849482  
C191     C      0.546510000000     0.291690000000     0.999460000000    -0.0863574  
C192     C      0.493900000000     0.312250000000     0.975910000000     0.0366008  
C193     C      0.528030000000     0.315060000000     0.977810000000     0.0389767  
C194     C      0.444910000000     0.324640000000     0.932700000000     0.0766033  
C195     C      0.445560000000     0.299040000000     0.019810000000     0.0761266  
C196     C      0.477730000000     0.298750000000     0.019950000000    -0.0842397  
C197     C      0.586880000000     0.373760000000     0.943260000000     0.0512908  
C198     C      0.351020000000     0.437130000000     0.033100000000     0.0886669  
C199     C      0.303340000000     0.433350000000     0.984640000000     0.0745179  
C200     C      0.348780000000     0.469010000000     0.031920000000    -0.0880544  
C201     C      0.331660000000     0.535320000000     0.047310000000    -0.085585   
C202     C      0.300610000000     0.465070000000     0.983030000000    -0.0853355  
C203     C      0.321980000000     0.517200000000     0.002670000000     0.0368236  
C204     C      0.323640000000     0.483340000000     0.006250000000     0.0387505  
C205     C      0.331690000000     0.567040000000     0.042140000000     0.0757373  
C206     C      0.311990000000     0.563580000000     0.950220000000     0.0750461  
C207     C      0.311740000000     0.531760000000     0.953900000000    -0.0851766  
C208     C      0.377890000000     0.424440000000     0.060640000000     0.0502634  
H1       H      0.217810000000     0.077350000000     0.417870000000     0.0327884  
H2       H      0.186630000000     0.919320000000     0.566690000000     0.0337347  
H3       H      0.162810000000     0.019450000000     0.563110000000     0.0544614  
H4       H      0.191380000000     0.973930000000     0.573020000000     0.0548436  
H5       H      0.217690000000     0.022110000000     0.413850000000     0.0555736  
H6       H      0.184490000000     0.981080000000     0.394740000000     0.05858    
H7       H      0.164600000000     0.074620000000     0.566920000000     0.0315182  
H8       H      0.076840000000     0.810950000000     0.562500000000     0.0335192  
H9       H      0.922630000000     0.858150000000     0.419120000000     0.0328279  
H10      H      0.020910000000     0.826250000000     0.385310000000     0.0557089  
H11      H      0.978020000000     0.857090000000     0.418640000000     0.0551655  
H12      H      0.020880000000     0.809330000000     0.562310000000     0.0562828  
H13      H      0.977240000000     0.778960000000     0.527530000000     0.0599806  
H14      H      0.076710000000     0.828120000000     0.387200000000     0.0342424  
H15      H      0.807640000000     0.924940000000     0.569420000000     0.0320869  
H16      H      0.854950000000     0.077510000000     0.429510000000     0.0324005  
H17      H      0.814590000000     0.982870000000     0.393340000000     0.0558714  
H18      H      0.850130000000     0.022890000000     0.424840000000     0.0553544  
H19      H      0.807050000000     0.980360000000     0.572220000000     0.0561092  
H20      H      0.776850000000     0.025670000000     0.544260000000     0.059519   
H21      H      0.815450000000     0.927550000000     0.392170000000     0.0346047  
H22      H      0.091840000000     0.203260000000     0.572400000000     0.0333276  
H23      H      0.932170000000     0.192600000000     0.415990000000     0.034277   
H24      H      0.030990000000     0.160950000000     0.417080000000     0.0548587  
H25      H      0.987560000000     0.194230000000     0.411970000000     0.0553337  
H26      H      0.036150000000     0.206520000000     0.575670000000     0.0558785  
H27      H      0.992450000000     0.174770000000     0.587440000000     0.0588082  
H28      H      0.086750000000     0.159090000000     0.414460000000     0.0317853  
H29      H      0.742380000000     0.775390000000     0.562490000000     0.0335849  
H30      H      0.720890000000     0.756910000000     0.884050000000     0.0332796  
H31      H      0.790690000000     0.780080000000     0.748500000000     0.0567374  
H32      H      0.743670000000     0.783720000000     0.806580000000     0.0558382  
H33      H      0.717250000000     0.750260000000     0.640210000000     0.056408   
H34      H      0.727100000000     0.706180000000     0.701860000000     0.0604801  
H35      H      0.815110000000     0.805160000000     0.669820000000     0.0347031  
H36      H      0.674810000000     0.717140000000     0.157130000000     0.0336957  
H37      H      0.819520000000     0.752570000000     0.342720000000     0.033512   
H38      H      0.787690000000     0.729080000000     0.165870000000     0.0556263  
H39      H      0.797140000000     0.724500000000     0.266320000000     0.0559744  
H40      H      0.697670000000     0.742440000000     0.236790000000     0.0563942  
H41      H      0.723990000000     0.790320000000     0.254650000000     0.0596207  
H42      H      0.764020000000     0.703400000000     0.087180000000     0.0334132  
H43      H      0.818510000000     0.187250000000     0.693590000000     0.0373763  
H44      H      0.692240000000     0.293060000000     0.813130000000     0.0332038  
H45      H      0.758520000000     0.281680000000     0.664880000000     0.0561643  
H46      H      0.716420000000     0.269620000000     0.733930000000     0.0565192  
H47      H      0.796030000000     0.212380000000     0.773700000000     0.0576529  
H48      H      0.801170000000     0.261970000000     0.826020000000     0.0604758  
H49      H      0.781400000000     0.256060000000     0.585760000000     0.0324381  
H50      H      0.827610000000     0.250070000000     0.357500000000     0.0342055  
H51      H      0.709670000000     0.244030000000     0.110340000000     0.0338064  
H52      H      0.729190000000     0.208660000000     0.287660000000     0.0552284  
H53      H      0.733570000000     0.218220000000     0.188380000000     0.0556189  
H54      H      0.802520000000     0.274930000000     0.279290000000     0.0570259  
H55      H      0.757430000000     0.304920000000     0.259530000000     0.05957    
H56      H      0.755420000000     0.183900000000     0.365240000000     0.032429   
H57      H      0.717290000000     0.424430000000     0.920500000000     0.0342312  
H58      H      0.656900000000     0.575760000000     0.049300000000     0.0341591  
H59      H      0.688390000000     0.479360000000     0.091060000000     0.056882   
H60      H      0.660830000000     0.521210000000     0.054430000000     0.0568234  
H61      H      0.719160000000     0.479720000000     0.920490000000     0.0578747  
H62      H      0.743070000000     0.524420000000     0.955450000000     0.0601465  
H63      H      0.685600000000     0.424220000000     0.088600000000     0.0379545  
H64      H      0.241490000000     0.692360000000     0.860230000000     0.0322573  
H65      H      0.243060000000     0.818330000000     0.626860000000     0.0343362  
H66      H      0.302970000000     0.756270000000     0.732900000000     0.0554462  
H67      H      0.266980000000     0.795170000000     0.707130000000     0.0556597  
H68      H      0.216410000000     0.715470000000     0.779810000000     0.0560011  
H69      H      0.214390000000     0.713400000000     0.680030000000     0.0592028  
H70      H      0.326950000000     0.733550000000     0.814360000000     0.0336922  
H71      H      0.259390000000     0.809370000000     0.354680000000     0.0331582  
H72      H      0.264610000000     0.676710000000     0.136200000000     0.0340991  
H73      H      0.201900000000     0.734110000000     0.243090000000     0.0557713  
H74      H      0.241220000000     0.699170000000     0.216730000000     0.055913   
H75      H      0.284290000000     0.786380000000     0.274970000000     0.0570385  
H76      H      0.282390000000     0.785560000000     0.175460000000     0.0601224  
H77      H      0.178200000000     0.756840000000     0.323910000000     0.0344392  
H78      H      0.582990000000     0.725370000000     0.001750000000     0.0333661  
H79      H      0.423900000000     0.662260000000     0.891910000000     0.0337348  
H80      H      0.523430000000     0.639590000000     0.924130000000     0.0556709  
H81      H      0.479150000000     0.664260000000     0.884930000000     0.0556434  
H82      H      0.527120000000     0.728100000000     0.001730000000     0.0563275  
H83      H      0.484410000000     0.704450000000     0.047600000000     0.0595421  
H84      H      0.579160000000     0.638110000000     0.923460000000     0.0342061  
H85      H      0.205210000000     0.254600000000     0.615840000000     0.0332145  
H86      H      0.302280000000     0.241570000000     0.890660000000     0.0331689  
H87      H      0.285980000000     0.198590000000     0.719080000000     0.0546259  
H88      H      0.278330000000     0.216050000000     0.812930000000     0.0555337  
H89      H      0.230420000000     0.279150000000     0.693690000000     0.0565553  
H90      H      0.278940000000     0.300140000000     0.719940000000     0.0591455  
H91      H      0.259500000000     0.174380000000     0.641650000000     0.0313932  
H92      H      0.185320000000     0.244000000000     0.342360000000     0.032483   
H93      H      0.333790000000     0.288220000000     0.174460000000     0.0353731  
H94      H      0.290230000000     0.216110000000     0.283670000000     0.0549855  
H95      H      0.310740000000     0.264220000000     0.254340000000     0.0552186  
H96      H      0.207940000000     0.270350000000     0.263480000000     0.0556571  
H97      H      0.223340000000     0.262500000000     0.169390000000     0.058963   
H98      H      0.267190000000     0.190950000000     0.363300000000     0.0324437  
H99      H      0.432730000000     0.335060000000     0.897980000000     0.0336829  
H100     H      0.591700000000     0.276570000000     0.019460000000     0.0327964  
H101     H      0.489760000000     0.289090000000     0.055450000000     0.0555436  
H102     H      0.536450000000     0.270480000000     0.013770000000     0.0551027  
H103     H      0.488500000000     0.334520000000     0.895670000000     0.0563517  
H104     H      0.528530000000     0.360620000000     0.943640000000     0.0602353  
H105     H      0.433870000000     0.289160000000     0.055360000000     0.0344231  
H106     H      0.339630000000     0.580210000000     0.077480000000     0.0333308  
H107     H      0.284980000000     0.420270000000     0.965480000000     0.0364216  
H108     H      0.304340000000     0.518690000000     0.918140000000     0.0562837  
H109     H      0.280470000000     0.475170000000     0.963600000000     0.0564633  
H110     H      0.339230000000     0.525090000000     0.086150000000     0.0560473  
H111     H      0.367110000000     0.482640000000     0.049920000000     0.0592537  
H112     H      0.304330000000     0.574000000000     0.911530000000     0.0325141  
In1      In     0.337230000000     0.326750000000     0.991840000000     2.41821    
In2      In     0.328000000000     0.673450000000     0.978840000000     2.4183     
In3      In     0.686240000000     0.329040000000     0.996660000000     2.41782    
In4      In     0.678060000000     0.672820000000     0.977700000000     2.42409    
In5      In     0.835900000000     0.175350000000     0.499510000000     2.41496    
In6      In     0.823710000000     0.830230000000     0.477470000000     2.41704    
In7      In     0.174400000000     0.825160000000     0.475950000000     2.41684    
In8      In     0.186530000000     0.172710000000     0.492310000000     2.41134    
N1       N      0.183390000000     0.918070000000     0.477470000000    -0.193358   
N2       N      0.191060000000     0.079910000000     0.492430000000    -0.193996   
N3       N      0.177200000000     0.911060000000     0.322610000000    -0.090395   
N4       N      0.917270000000     0.819650000000     0.474040000000    -0.194073   
N5       N      0.080720000000     0.819830000000     0.474990000000    -0.193595   
N6       N      0.903020000000     0.752640000000     0.567550000000    -0.0895026  
N7       N      0.819230000000     0.083740000000     0.490020000000    -0.194456   
N8       N      0.812030000000     0.922360000000     0.480740000000    -0.193831   
N9       N      0.757190000000     0.099520000000     0.593530000000    -0.0901074  
N10      N      0.929780000000     0.182990000000     0.503660000000    -0.193331   
N11      N      0.093230000000     0.180820000000     0.493380000000    -0.193645   
N12      N      0.920660000000     0.167670000000     0.656120000000    -0.0894756  
N13      N      0.710780000000     0.715920000000     0.838730000000    -0.193809   
N14      N      0.780580000000     0.791920000000     0.610610000000    -0.193114   
N15      N      0.689990000000     0.643190000000     0.766690000000    -0.0874941  
N16      N      0.784780000000     0.787470000000     0.344010000000    -0.193041   
N17      N      0.717750000000     0.708750000000     0.116300000000    -0.193511   
N18      N      0.727250000000     0.851000000000     0.351430000000    -0.090061   
N19      N      0.732310000000     0.291280000000     0.865960000000    -0.195026   
N20      N      0.801410000000     0.219780000000     0.634050000000    -0.193277   
N21      N      0.799290000000     0.289960000000     0.964680000000    -0.0904646  
N22      N      0.720320000000     0.289320000000     0.138240000000    -0.192173   
N23      N      0.793260000000     0.215300000000     0.367020000000    -0.192882   
N24      N      0.733880000000     0.370080000000     0.182140000000    -0.0884034  
N25      N      0.696710000000     0.582160000000     0.997750000000    -0.193136   
N26      N      0.700770000000     0.420470000000     0.004130000000    -0.191767   
N27      N      0.766770000000     0.598600000000     0.912780000000    -0.087278   
N28      N      0.214360000000     0.779940000000     0.606830000000    -0.19269    
N29      N      0.285930000000     0.711380000000     0.843100000000    -0.193902   
N30      N      0.163210000000     0.715330000000     0.564220000000    -0.0900348  
N31      N      0.287660000000     0.717530000000     0.109110000000    -0.193064   
N32      N      0.217070000000     0.784760000000     0.344940000000    -0.193584   
N33      N      0.329060000000     0.786220000000     0.054470000000    -0.0882936  
N34      N      0.421640000000     0.682210000000     0.973320000000    -0.193024   
N35      N      0.585020000000     0.681460000000     0.963070000000    -0.193346   
N36      N      0.412700000000     0.717780000000     0.113590000000    -0.0875379  
N37      N      0.303720000000     0.285780000000     0.851750000000    -0.193102   
N38      N      0.230580000000     0.212780000000     0.623180000000    -0.194597   
N39      N      0.310990000000     0.363930000000     0.789470000000    -0.0894191  
N40      N      0.292310000000     0.289750000000     0.125330000000    -0.192785   
N41      N      0.224650000000     0.215660000000     0.358460000000    -0.194155   
N42      N      0.222540000000     0.295000000000     0.033670000000    -0.0902693  
N43      N      0.592430000000     0.321710000000     0.984240000000    -0.194512   
N44      N      0.429390000000     0.312690000000     0.977290000000    -0.192707   
N45      N      0.598470000000     0.400760000000     0.925200000000    -0.0903596  
N46      N      0.328490000000     0.419290000000     0.008450000000    -0.194016   
N47      N      0.322280000000     0.581000000000     0.993760000000    -0.194138   
N48      N      0.403100000000     0.412690000000     0.086460000000    -0.0906457  
O1       O      0.293630000000     0.310610000000     0.036170000000    -0.495303   
O2       O      0.335760000000     0.307590000000     0.080250000000    -0.492483   
O3       O      0.319630000000     0.327850000000     0.902640000000    -0.491885   
O4       O      0.310670000000     0.371740000000     0.981450000000    -0.492708   
O5       O      0.382660000000     0.305610000000     0.020990000000    -0.486231   
O6       O      0.353460000000     0.373120000000     0.023160000000    -0.503381   
O7       O      0.322890000000     0.284650000000     0.942020000000    -0.503318   
O8       O      0.382590000000     0.330600000000     0.945020000000    -0.499897   
O9       O      0.285910000000     0.681390000000     0.922600000000    -0.499503   
O10      O      0.327830000000     0.703110000000     0.900660000000    -0.501089   
O11      O      0.295780000000     0.675400000000     0.053380000000    -0.501668   
O12      O      0.333960000000     0.628920000000     0.027030000000    -0.501226   
O13      O      0.374530000000     0.667510000000     0.936700000000    -0.500649   
O14      O      0.315300000000     0.626240000000     0.945370000000    -0.498654   
O15      O      0.319570000000     0.715800000000     0.031760000000    -0.490138   
O16      O      0.374060000000     0.688660000000     0.015610000000    -0.488559   
O17      O      0.695050000000     0.287590000000     0.053020000000    -0.493376   
O18      O      0.709660000000     0.330890000000     0.081260000000    -0.488035   
O19      O      0.688570000000     0.310020000000     0.908480000000    -0.509703   
O20      O      0.640570000000     0.303500000000     0.010510000000    -0.496936   
O21      O      0.684920000000     0.374530000000     0.041390000000    -0.483986   
O22      O      0.638970000000     0.346490000000     0.970810000000    -0.502774   
O23      O      0.729930000000     0.311480000000     0.955040000000    -0.49978    
O24      O      0.704260000000     0.373810000000     0.960190000000    -0.49555    
O25      O      0.719980000000     0.686270000000     0.029730000000    -0.500741   
O26      O      0.675690000000     0.693330000000     0.064500000000    -0.49646    
O27      O      0.689940000000     0.674210000000     0.885230000000    -0.492813   
O28      O      0.706870000000     0.630250000000     0.960980000000    -0.487507   
O29      O      0.633100000000     0.699330000000     0.988650000000    -0.493701   
O30      O      0.669730000000     0.626300000000     0.017240000000    -0.504622   
O31      O      0.697130000000     0.714370000000     0.931680000000    -0.506956   
O32      O      0.630960000000     0.656490000000     0.948080000000    -0.499517   
O33      O      0.797050000000     0.178140000000     0.435310000000    -0.500839   
O34      O      0.832380000000     0.211770000000     0.432120000000    -0.490942   
O35      O      0.827320000000     0.179880000000     0.592920000000    -0.485075   
O36      O      0.808850000000     0.132440000000     0.522830000000    -0.492731   
O37      O      0.882560000000     0.183600000000     0.458450000000    -0.492002   
O38      O      0.845140000000     0.127850000000     0.465250000000    -0.511001   
O39      O      0.811080000000     0.215360000000     0.540110000000    -0.503552   
O40      O      0.882080000000     0.176360000000     0.545390000000    -0.496095   
O41      O      0.822690000000     0.792710000000     0.411650000000    -0.50261    
O42      O      0.786980000000     0.825620000000     0.410520000000    -0.490219   
O43      O      0.820540000000     0.818760000000     0.570220000000    -0.488046   
O44      O      0.868080000000     0.804880000000     0.501080000000    -0.489794   
O45      O      0.818530000000     0.876620000000     0.435340000000    -0.492514   
O46      O      0.871780000000     0.843430000000     0.448430000000    -0.508544   
O47      O      0.783770000000     0.804770000000     0.517610000000    -0.502519   
O48      O      0.814880000000     0.875040000000     0.523300000000    -0.501808   
O49      O      0.179780000000     0.783550000000     0.532800000000    -0.492553   
O50      O      0.208940000000     0.821390000000     0.547410000000    -0.497518   
O51      O      0.176150000000     0.791110000000     0.404660000000    -0.497546   
O52      O      0.127700000000     0.826490000000     0.432270000000    -0.497296   
O53      O      0.178420000000     0.870940000000     0.520580000000    -0.497427   
O54      O      0.128050000000     0.818360000000     0.519380000000    -0.496711   
O55      O      0.215780000000     0.818420000000     0.418640000000    -0.49929    
O56      O      0.179850000000     0.871330000000     0.432680000000    -0.49438    
O57      O      0.184830000000     0.206580000000     0.419670000000    -0.50005    
O58      O      0.226030000000     0.181350000000     0.431720000000    -0.498853   
O59      O      0.195720000000     0.212660000000     0.550420000000    -0.501512   
O60      O      0.141460000000     0.187150000000     0.532520000000    -0.495615   
O61      O      0.201540000000     0.127350000000     0.454750000000    -0.496577   
O62      O      0.139120000000     0.167150000000     0.452190000000    -0.499445   
O63      O      0.221430000000     0.172190000000     0.564300000000    -0.501966   
O64      O      0.177770000000     0.126010000000     0.531750000000    -0.502172   


